* NGSPICE file created from sky130_td_ip__opamp_hp_rcx.ext - technology: sky130A

.subckt sky130_td_ip__opamp_hp_rcx avdd vout ibias vinn vinp dvdd dvss ena avss
X0 net4 net5 avdd avdd sky130_fd_pr__pfet_g5v0d10v5 ad=1.74 pd=12.289999 as=1.74 ps=12.289999 w=12 l=1
X1 avss net6 net2 avss sky130_fd_pr__nfet_g5v0d10v5 ad=0.87 pd=6.29 as=0.87 ps=6.29 w=6 l=1
X2 avdd net18 vtailp avdd sky130_fd_pr__pfet_g5v0d10v5 ad=2.32 pd=16.289999 as=2.32 ps=16.289999 w=16 l=1
X3 avdd avdd avdd avdd sky130_fd_pr__pfet_g5v0d10v5 ad=1.305 pd=9.29 as=398.63397 ps=2.83388k w=9 l=1
X4 vtailp vb2 a_976_7241# avdd sky130_fd_pr__pfet_g5v0d10v5 ad=1.305 pd=9.29 as=1.305 ps=9.29 w=9 l=1
X5 net2 vinp vtailp avdd sky130_fd_pr__pfet_g5v0d10v5 ad=0.87 pd=6.29 as=0.87 ps=6.29 w=6 l=1
X6 net2 vinp vtailp avdd sky130_fd_pr__pfet_g5v0d10v5 ad=0.87 pd=6.29 as=0.87 ps=6.29 w=6 l=1
X7 vtailp vinp net2 avdd sky130_fd_pr__pfet_g5v0d10v5 ad=0.87 pd=6.29 as=0.87 ps=6.29 w=6 l=1
X8 a_25480_9863# vb5 avdd avdd sky130_fd_pr__pfet_g5v0d10v5 ad=0.58 pd=4.29 as=0.58 ps=4.29 w=4 l=1
X9 avss vb8 net25 avss sky130_fd_pr__nfet_g5v0d10v5 ad=0.29 pd=2.29 as=0.29 ps=2.29 w=2 l=1
X10 vtailn vinp net4 avss sky130_fd_pr__nfet_g5v0d10v5 ad=0.435 pd=3.29 as=0.435 ps=3.29 w=3 l=1
X11 net18 a_n3740_n2876# avdd avdd sky130_fd_pr__pfet_g5v0d10v5 ad=1.16 pd=8.58 as=1.16 ps=8.58 w=4 l=0.5
X12 a_174_4837# a_n3740_n2876# avdd avdd sky130_fd_pr__pfet_g5v0d10v5 ad=1.16 pd=8.58 as=1.16 ps=8.58 w=4 l=0.5
X13 net6 avss avss avss sky130_fd_pr__nfet_g5v0d10v5 ad=0.29 pd=2.29 as=0.58 ps=4.58 w=2 l=1
X14 a_976_7241# vb1 avdd avdd sky130_fd_pr__pfet_g5v0d10v5 ad=1.305 pd=9.29 as=1.305 ps=9.29 w=9 l=1
X15 avdd vb5 a_25480_9863# avdd sky130_fd_pr__pfet_g5v0d10v5 ad=0.58 pd=4.29 as=0.58 ps=4.29 w=4 l=1
X16 avdd net5 net4 avdd sky130_fd_pr__pfet_g5v0d10v5 ad=1.74 pd=12.289999 as=1.74 ps=12.289999 w=12 l=1
R0 a_32240_1144# a_32606_n286# sky130_fd_pr__res_generic_po w=0.4 l=5
X17 vtailp avdd avdd avdd sky130_fd_pr__pfet_g5v0d10v5 ad=0.87 pd=6.29 as=1.74 ps=12.58 w=6 l=1
X18 vtailp vinp net2 avdd sky130_fd_pr__pfet_g5v0d10v5 ad=0.87 pd=6.29 as=0.87 ps=6.29 w=6 l=1
X19 avdd avdd vtailp avdd sky130_fd_pr__pfet_g5v0d10v5 ad=2.61 pd=18.58 as=1.305 ps=9.29 w=9 l=1
X20 avss vb8 net24 avss sky130_fd_pr__nfet_g5v0d10v5 ad=0.29 pd=2.29 as=0.29 ps=2.29 w=2 l=1
X21 net18 vb3 vtailn avss sky130_fd_pr__nfet_g5v0d10v5 ad=0.6525 pd=4.79 as=0.6525 ps=4.79 w=4.5 l=0.5
X22 avss avss avss avss sky130_fd_pr__nfet_g5v0d10v5 ad=0.29 pd=2.29 as=178.495 ps=1.31162k w=2 l=1
X23 a_n4714_n1100# vb3 net28 avss sky130_fd_pr__nfet_g5v0d10v5 ad=0.6525 pd=4.79 as=0.6525 ps=4.79 w=4.5 l=1
X24 avss net6 net1 avss sky130_fd_pr__nfet_g5v0d10v5 ad=0.87 pd=6.29 as=0.87 ps=6.29 w=6 l=1
X25 a_n410_7245# a_174_6041# vb7 avdd sky130_fd_pr__pfet_g5v0d10v5 ad=0.29 pd=2.29 as=0.29 ps=2.29 w=2 l=1
X26 net3 net5 avdd avdd sky130_fd_pr__pfet_g5v0d10v5 ad=1.74 pd=12.289999 as=1.74 ps=12.289999 w=12 l=1
X27 vb3 vb3 avss avss sky130_fd_pr__nfet_g5v0d10v5 ad=0.435 pd=3.58 as=0.435 ps=3.58 w=1.5 l=1
X28 avss avss net6 avss sky130_fd_pr__nfet_g5v0d10v5 ad=0.29 pd=2.29 as=0.29 ps=2.29 w=2 l=1
X29 avss vb8 net25 avss sky130_fd_pr__nfet_g5v0d10v5 ad=0.29 pd=2.29 as=0.29 ps=2.29 w=2 l=1
X30 net25 avss avss avss sky130_fd_pr__nfet_g5v0d10v5 ad=0.29 pd=2.29 as=0.58 ps=4.58 w=2 l=1
X31 a_n410_3633# vb2 net4 avdd sky130_fd_pr__pfet_g5v0d10v5 ad=1.74 pd=12.289999 as=1.74 ps=12.289999 w=12 l=1
X32 net31 enab_avdd avss avss sky130_fd_pr__nfet_g5v0d10v5 ad=0.58 pd=4.58 as=0.58 ps=4.58 w=2 l=0.5
X33 vtailn vinp net4 avss sky130_fd_pr__nfet_g5v0d10v5 ad=0.435 pd=3.29 as=0.435 ps=3.29 w=3 l=1
X34 vtailn vinp net4 avss sky130_fd_pr__nfet_g5v0d10v5 ad=0.435 pd=3.29 as=0.435 ps=3.29 w=3 l=1
X35 vtailn vinn net3 avss sky130_fd_pr__nfet_g5v0d10v5 ad=0.435 pd=3.29 as=0.435 ps=3.29 w=3 l=1
X36 avdd vb1 a_976_7241# avdd sky130_fd_pr__pfet_g5v0d10v5 ad=1.305 pd=9.29 as=1.305 ps=9.29 w=9 l=1
X37 avdd vb2 vb2 avdd sky130_fd_pr__pfet_g5v0d10v5 ad=0.87 pd=6.58 as=0.87 ps=6.58 w=3 l=1
X38 a_n3740_n2876# net35 avss avss sky130_fd_pr__nfet_g5v0d10v5 ad=0.58 pd=4.58 as=0.58 ps=4.58 w=2 l=0.5
X39 vtailp vb2 a_n5918_1254# avdd sky130_fd_pr__pfet_g5v0d10v5 ad=1.305 pd=9.29 as=1.305 ps=9.29 w=9 l=0.5
R1 vout a_31996_n286# sky130_fd_pr__res_generic_po w=0.4 l=5
X40 avdd vb1 a_3546_7651# avdd sky130_fd_pr__pfet_g5v0d10v5 ad=1.305 pd=9.29 as=1.305 ps=9.29 w=9 l=1
X41 a_174_6041# a_n3740_n2876# avdd avdd sky130_fd_pr__pfet_g5v0d10v5 ad=1.16 pd=8.58 as=1.16 ps=8.58 w=4 l=0.5
X42 avss avss net34 avss sky130_fd_pr__nfet_g5v0d10v5 ad=0.29 pd=2.29 as=0.29 ps=2.29 w=2 l=2
X43 net4 vb2 a_n410_3633# avdd sky130_fd_pr__pfet_g5v0d10v5 ad=1.74 pd=12.289999 as=1.74 ps=12.289999 w=12 l=1
X44 vout a_n410_3633# avdd avdd sky130_fd_pr__pfet_g5v0d10v5 ad=3.625 pd=25.289999 as=3.625 ps=25.289999 w=25 l=1
X45 avdd net22 a_n410_7245# avdd sky130_fd_pr__pfet_g5v0d10v5 ad=0.29 pd=2.29 as=0.29 ps=2.29 w=2 l=1
X46 avss avss net16 avss sky130_fd_pr__nfet_g5v0d10v5 ad=0.29 pd=2.29 as=0.29 ps=2.29 w=2 l=1
X47 vtailn vb3 net12 avss sky130_fd_pr__nfet_g5v0d10v5 ad=0.6525 pd=4.79 as=0.6525 ps=4.79 w=4.5 l=1
X48 net34 a_n3740_n2876# net31 avss sky130_fd_pr__nfet_g5v0d10v5 ad=0.58 pd=4.58 as=0.58 ps=4.58 w=2 l=0.5
R2 a_32850_1144# a_32484_n286# sky130_fd_pr__res_generic_po w=0.4 l=5
X49 net3 vinn vtailn avss sky130_fd_pr__nfet_g5v0d10v5 ad=0.435 pd=3.29 as=0.435 ps=3.29 w=3 l=1
X50 avdd avdd vb6 avdd sky130_fd_pr__pfet_g5v0d10v5 ad=1.16 pd=8.58 as=0.58 ps=4.29 w=4 l=1
X51 avdd avdd a_18664_3687# avdd sky130_fd_pr__pfet_g5v0d10v5 ad=0.58 pd=4.29 as=0.58 ps=4.29 w=4 l=1
X52 avss net6 net1 avss sky130_fd_pr__nfet_g5v0d10v5 ad=0.87 pd=6.29 as=0.87 ps=6.29 w=6 l=1
X53 avss a_n4714_n1100# net12 avss sky130_fd_pr__nfet_g5v0d10v5 ad=0.6525 pd=4.79 as=0.6525 ps=4.79 w=4.5 l=1
X54 net20 net33 net21 avss sky130_fd_pr__nfet_g5v0d10v5 ad=0.29 pd=2.29 as=0.29 ps=2.29 w=2 l=2
X55 net10 net10 a_18786_1658# avss sky130_fd_pr__nfet_g5v0d10v5 ad=0.29 pd=2.29 as=0.29 ps=2.29 w=2 l=1
X56 net25 vb8 avss avss sky130_fd_pr__nfet_g5v0d10v5 ad=0.29 pd=2.29 as=0.29 ps=2.29 w=2 l=1
X57 a_n5918_1254# a_n5918_1254# avss avss sky130_fd_pr__nfet_g5v0d10v5 ad=1.16 pd=8.29 as=1.16 ps=8.29 w=8 l=1
X58 net2 net6 avss avss sky130_fd_pr__nfet_g5v0d10v5 ad=0.87 pd=6.29 as=0.87 ps=6.29 w=6 l=1
X59 avdd net18 vtailp avdd sky130_fd_pr__pfet_g5v0d10v5 ad=2.32 pd=16.289999 as=2.32 ps=16.289999 w=16 l=1
X60 vb6 vb6 vb5 avdd sky130_fd_pr__pfet_g5v0d10v5 ad=0.58 pd=4.29 as=0.58 ps=4.29 w=4 l=1
X61 avss net8 vout avss sky130_fd_pr__nfet_g5v0d10v5 ad=1.45 pd=10.29 as=1.45 ps=10.29 w=10 l=1
X62 avss net8 vout avss sky130_fd_pr__nfet_g5v0d10v5 ad=1.45 pd=10.29 as=1.45 ps=10.29 w=10 l=1
X63 vtailn vinp net4 avss sky130_fd_pr__nfet_g5v0d10v5 ad=0.435 pd=3.29 as=0.435 ps=3.29 w=3 l=1
X64 a_18664_3687# a_174_4837# a_174_4837# avdd sky130_fd_pr__pfet_g5v0d10v5 ad=0.58 pd=4.29 as=0.58 ps=4.29 w=4 l=1
X65 a_n410_3633# a_32728_1144# sky130_fd_pr__cap_mim_m3_1 l=12 w=12
X66 avss a_n4714_n1100# net28 avss sky130_fd_pr__nfet_g5v0d10v5 ad=0.6525 pd=4.79 as=0.6525 ps=4.79 w=4.5 l=1
X67 avdd avdd vb7 avdd sky130_fd_pr__pfet_g5v0d10v5 ad=0.58 pd=4.58 as=0.29 ps=2.29 w=2 l=1
X68 avdd a_n410_3633# vout avdd sky130_fd_pr__pfet_g5v0d10v5 ad=3.625 pd=25.289999 as=3.625 ps=25.289999 w=25 l=1
X69 avss net8 vout avss sky130_fd_pr__nfet_g5v0d10v5 ad=1.45 pd=10.29 as=1.45 ps=10.29 w=10 l=1
X70 a_23416_9863# vb5 avdd avdd sky130_fd_pr__pfet_g5v0d10v5 ad=0.58 pd=4.29 as=0.58 ps=4.29 w=4 l=1
X71 avss avss net20 avss sky130_fd_pr__nfet_g5v0d10v5 ad=0.58 pd=4.58 as=0.29 ps=2.29 w=2 l=2
X72 avss a_n5918_1254# vtailn avss sky130_fd_pr__nfet_g5v0d10v5 ad=1.16 pd=8.29 as=1.16 ps=8.29 w=8 l=1
X73 avdd avdd avdd avdd sky130_fd_pr__pfet_g5v0d10v5 ad=2.61 pd=18.58 as=0 ps=0 w=9 l=1
X74 avdd net22 a_n410_7245# avdd sky130_fd_pr__pfet_g5v0d10v5 ad=0.29 pd=2.29 as=0.29 ps=2.29 w=2 l=1
X75 avss avss net8 avss sky130_fd_pr__nfet_g5v0d10v5 ad=1.74 pd=12.58 as=0.87 ps=6.29 w=6 l=1
X76 net4 vb2 a_n410_3633# avdd sky130_fd_pr__pfet_g5v0d10v5 ad=1.74 pd=12.289999 as=1.74 ps=12.289999 w=12 l=1
X77 vb7 vb7 vb8 avss sky130_fd_pr__nfet_g5v0d10v5 ad=0.29 pd=2.29 as=0.29 ps=2.29 w=2 l=1
X78 vout net8 avss avss sky130_fd_pr__nfet_g5v0d10v5 ad=1.45 pd=10.29 as=1.45 ps=10.29 w=10 l=1
X79 net6 a_174_4837# net5 avdd sky130_fd_pr__pfet_g5v0d10v5 ad=0.609 pd=4.49 as=0.609 ps=4.49 w=4.2 l=1
X80 net25 vb8 avss avss sky130_fd_pr__nfet_g5v0d10v5 ad=0.29 pd=2.29 as=0.29 ps=2.29 w=2 l=1
R3 a_32240_1144# a_32118_n286# sky130_fd_pr__res_generic_po w=0.4 l=5
X81 a_n410_3633# a_32728_1144# sky130_fd_pr__cap_mim_m3_1 l=12 w=12
X82 net3 vb2 net5 avdd sky130_fd_pr__pfet_g5v0d10v5 ad=1.74 pd=12.289999 as=1.74 ps=12.289999 w=12 l=1
X83 net1 enab_avdd avss avss sky130_fd_pr__nfet_g5v0d10v5 ad=0.58 pd=4.58 as=0.58 ps=4.58 w=2 l=0.5
X84 vout a_n410_3633# avdd avdd sky130_fd_pr__pfet_g5v0d10v5 ad=3.625 pd=25.289999 as=3.625 ps=25.289999 w=25 l=1
X85 vout a_n410_3633# avdd avdd sky130_fd_pr__pfet_g5v0d10v5 ad=3.625 pd=25.289999 as=3.625 ps=25.289999 w=25 l=1
X86 vtailn a_n5918_1254# avss avss sky130_fd_pr__nfet_g5v0d10v5 ad=1.16 pd=8.29 as=1.16 ps=8.29 w=8 l=1
X87 net2 net6 avss avss sky130_fd_pr__nfet_g5v0d10v5 ad=0.87 pd=6.29 as=0.87 ps=6.29 w=6 l=1
X88 net3 vb2 net5 avdd sky130_fd_pr__pfet_g5v0d10v5 ad=1.74 pd=12.289999 as=1.74 ps=12.289999 w=12 l=1
X89 avss avss net24 avss sky130_fd_pr__nfet_g5v0d10v5 ad=0.29 pd=2.29 as=0.29 ps=2.29 w=2 l=1
X90 a_25480_9863# vb6 a_n4714_n1100# avdd sky130_fd_pr__pfet_g5v0d10v5 ad=0.58 pd=4.29 as=0.58 ps=4.29 w=4 l=1
X91 a_23416_9863# vb6 vb3 avdd sky130_fd_pr__pfet_g5v0d10v5 ad=0.58 pd=4.29 as=0.58 ps=4.29 w=4 l=1
X92 avss net6 net1 avss sky130_fd_pr__nfet_g5v0d10v5 ad=0.87 pd=6.29 as=0.87 ps=6.29 w=6 l=1
X93 net28 a_n4714_n1100# avss avss sky130_fd_pr__nfet_g5v0d10v5 ad=0.6525 pd=4.79 as=0.6525 ps=4.79 w=4.5 l=1
X94 a_25480_9863# vb6 a_n4714_n1100# avdd sky130_fd_pr__pfet_g5v0d10v5 ad=0.58 pd=4.29 as=0.58 ps=4.29 w=4 l=1
X95 a_174_4837# vb7 net16 avss sky130_fd_pr__nfet_g5v0d10v5 ad=0.29 pd=2.29 as=0.29 ps=2.29 w=2 l=1
X96 net25 vb7 vb6 avss sky130_fd_pr__nfet_g5v0d10v5 ad=0.29 pd=2.29 as=0.29 ps=2.29 w=2 l=1
X97 avss vb8 net24 avss sky130_fd_pr__nfet_g5v0d10v5 ad=0.29 pd=2.29 as=0.29 ps=2.29 w=2 l=1
X98 avss net8 vout avss sky130_fd_pr__nfet_g5v0d10v5 ad=1.45 pd=10.29 as=1.45 ps=10.29 w=10 l=1
X99 avdd avdd net8 avdd sky130_fd_pr__pfet_g5v0d10v5 ad=1.218 pd=8.98 as=0.609 ps=4.49 w=4.2 l=1
X100 a_n5918_1254# vb2 vtailp avdd sky130_fd_pr__pfet_g5v0d10v5 ad=1.305 pd=9.29 as=1.305 ps=9.29 w=9 l=0.5
X101 avss a_n5918_1254# vtailn avss sky130_fd_pr__nfet_g5v0d10v5 ad=1.16 pd=8.29 as=1.16 ps=8.29 w=8 l=1
X102 net5 vb2 net3 avdd sky130_fd_pr__pfet_g5v0d10v5 ad=1.74 pd=12.289999 as=1.74 ps=12.289999 w=12 l=1
X103 avdd a_n410_3633# vout avdd sky130_fd_pr__pfet_g5v0d10v5 ad=3.625 pd=25.289999 as=3.625 ps=25.289999 w=25 l=1
X104 net24 vb7 vb2 avss sky130_fd_pr__nfet_g5v0d10v5 ad=0.29 pd=2.29 as=0.29 ps=2.29 w=2 l=1
X105 net29 a_n4714_n1100# avss avss sky130_fd_pr__nfet_g5v0d10v5 ad=0.6525 pd=4.79 as=0.6525 ps=4.79 w=4.5 l=1
X106 net21 net33 net20 avss sky130_fd_pr__nfet_g5v0d10v5 ad=0.29 pd=2.29 as=0.29 ps=2.29 w=2 l=2
X107 avdd vb5 a_25480_9863# avdd sky130_fd_pr__pfet_g5v0d10v5 ad=0.58 pd=4.29 as=0.58 ps=4.29 w=4 l=1
X108 net8 vb3 net2 avss sky130_fd_pr__nfet_g5v0d10v5 ad=0.87 pd=6.29 as=0.87 ps=6.29 w=6 l=1
X109 vb3 vb6 a_23416_9863# avdd sky130_fd_pr__pfet_g5v0d10v5 ad=0.58 pd=4.29 as=0.58 ps=4.29 w=4 l=1
X110 avdd vb5 net13 avdd sky130_fd_pr__pfet_g5v0d10v5 ad=0.58 pd=4.29 as=0.58 ps=4.29 w=4 l=1
X111 vtailn vb3 net12 avss sky130_fd_pr__nfet_g5v0d10v5 ad=0.6525 pd=4.79 as=0.6525 ps=4.79 w=4.5 l=1
X112 avdd net5 net3 avdd sky130_fd_pr__pfet_g5v0d10v5 ad=1.74 pd=12.289999 as=1.74 ps=12.289999 w=12 l=1
X113 net18 vb3 vtailn avss sky130_fd_pr__nfet_g5v0d10v5 ad=0.6525 pd=4.79 as=0.6525 ps=4.79 w=4.5 l=0.5
X114 vout net8 avss avss sky130_fd_pr__nfet_g5v0d10v5 ad=1.45 pd=10.29 as=1.45 ps=10.29 w=10 l=1
X115 net4 vinp vtailn avss sky130_fd_pr__nfet_g5v0d10v5 ad=0.435 pd=3.29 as=0.435 ps=3.29 w=3 l=1
X116 vtailn vinp net4 avss sky130_fd_pr__nfet_g5v0d10v5 ad=0.435 pd=3.29 as=0.435 ps=3.29 w=3 l=1
X117 net20 net33 net21 avss sky130_fd_pr__nfet_g5v0d10v5 ad=0.29 pd=2.29 as=0.29 ps=2.29 w=2 l=2
X118 avss a_18786_1658# a_18786_1658# avss sky130_fd_pr__nfet_g5v0d10v5 ad=0.29 pd=2.29 as=0.29 ps=2.29 w=2 l=1
X119 net6 a_174_4837# net5 avdd sky130_fd_pr__pfet_g5v0d10v5 ad=0.609 pd=4.49 as=0.609 ps=4.49 w=4.2 l=1
X120 net1 vb3 net6 avss sky130_fd_pr__nfet_g5v0d10v5 ad=0.87 pd=6.29 as=0.87 ps=6.29 w=6 l=1
X121 net3 vinn vtailn avss sky130_fd_pr__nfet_g5v0d10v5 ad=0.435 pd=3.29 as=0.435 ps=3.29 w=3 l=1
X122 avss vb8 vb8 avss sky130_fd_pr__nfet_g5v0d10v5 ad=0.29 pd=2.29 as=0.29 ps=2.29 w=2 l=1
X123 net2 vb3 net8 avss sky130_fd_pr__nfet_g5v0d10v5 ad=0.87 pd=6.29 as=0.87 ps=6.29 w=6 l=1
X124 net34 net33 ibias avss sky130_fd_pr__nfet_g5v0d10v5 ad=0.29 pd=2.29 as=0.29 ps=2.29 w=2 l=2
X125 net3 net5 avdd avdd sky130_fd_pr__pfet_g5v0d10v5 ad=1.74 pd=12.289999 as=1.74 ps=12.289999 w=12 l=1
X126 net1 net6 avss avss sky130_fd_pr__nfet_g5v0d10v5 ad=0.87 pd=6.29 as=0.87 ps=6.29 w=6 l=1
X127 ibias net33 net34 avss sky130_fd_pr__nfet_g5v0d10v5 ad=0.29 pd=2.29 as=0.29 ps=2.29 w=2 l=2
X128 a_976_7241# vb2 vtailp avdd sky130_fd_pr__pfet_g5v0d10v5 ad=1.305 pd=9.29 as=1.305 ps=9.29 w=9 l=1
X129 avdd a_n3740_n2876# a_n410_3633# avdd sky130_fd_pr__pfet_g5v0d10v5 ad=1.16 pd=8.58 as=1.16 ps=8.58 w=4 l=0.5
X130 a_25480_9863# vb6 a_n4714_n1100# avdd sky130_fd_pr__pfet_g5v0d10v5 ad=0.58 pd=4.29 as=0.58 ps=4.29 w=4 l=1
X131 net21 net33 net20 avss sky130_fd_pr__nfet_g5v0d10v5 ad=0.29 pd=2.29 as=0.29 ps=2.29 w=2 l=2
X132 vtailp vb2 a_n5918_1254# avdd sky130_fd_pr__pfet_g5v0d10v5 ad=1.305 pd=9.29 as=1.305 ps=9.29 w=9 l=0.5
X133 net8 a_32850_1144# sky130_fd_pr__cap_mim_m3_1 l=12 w=12
X134 net5 a_174_4837# net6 avdd sky130_fd_pr__pfet_g5v0d10v5 ad=0.609 pd=4.49 as=0.609 ps=4.49 w=4.2 l=1
X135 a_n410_3633# a_32728_1144# sky130_fd_pr__cap_mim_m3_1 l=12 w=12
X136 net12 enab_avdd avss avss sky130_fd_pr__nfet_g5v0d10v5 ad=0.58 pd=4.58 as=0.58 ps=4.58 w=2 l=0.5
X137 vtailp net18 avdd avdd sky130_fd_pr__pfet_g5v0d10v5 ad=2.32 pd=16.289999 as=2.32 ps=16.289999 w=16 l=1
X138 vb7 avdd avdd avdd sky130_fd_pr__pfet_g5v0d10v5 ad=0.29 pd=2.29 as=0.29 ps=2.29 w=2 l=1
X139 vtailn vinn net3 avss sky130_fd_pr__nfet_g5v0d10v5 ad=0.435 pd=3.29 as=0.435 ps=3.29 w=3 l=1
X140 net8 vb3 net2 avss sky130_fd_pr__nfet_g5v0d10v5 ad=0.87 pd=6.29 as=0.87 ps=6.29 w=6 l=1
X141 avdd avdd avdd avdd sky130_fd_pr__pfet_g5v0d10v5 ad=4.64 pd=32.579998 as=0 ps=0 w=16 l=1
X142 avdd a_n410_3633# vout avdd sky130_fd_pr__pfet_g5v0d10v5 ad=3.625 pd=25.289999 as=3.625 ps=25.289999 w=25 l=1
X143 avss avss vtailn avss sky130_fd_pr__nfet_g5v0d10v5 ad=2.32 pd=16.58 as=1.16 ps=8.29 w=8 l=1
X144 net16 vb7 a_174_4837# avss sky130_fd_pr__nfet_g5v0d10v5 ad=0.29 pd=2.29 as=0.29 ps=2.29 w=2 l=1
X145 net6 vb3 net1 avss sky130_fd_pr__nfet_g5v0d10v5 ad=0.87 pd=6.29 as=0.87 ps=6.29 w=6 l=1
X146 vtailp vb2 a_n5918_1254# avdd sky130_fd_pr__pfet_g5v0d10v5 ad=1.305 pd=9.29 as=1.305 ps=9.29 w=9 l=0.5
X147 a_n410_3633# vb2 net4 avdd sky130_fd_pr__pfet_g5v0d10v5 ad=1.74 pd=12.289999 as=1.74 ps=12.289999 w=12 l=1
X148 net8 a_32850_1144# sky130_fd_pr__cap_mim_m3_1 l=12 w=12
X149 vb1 vb2 a_3546_7651# avdd sky130_fd_pr__pfet_g5v0d10v5 ad=1.305 pd=9.29 as=1.305 ps=9.29 w=9 l=1
X150 vtailp vb2 a_976_7241# avdd sky130_fd_pr__pfet_g5v0d10v5 ad=1.305 pd=9.29 as=1.305 ps=9.29 w=9 l=1
X151 net32 avdd avdd avdd sky130_fd_pr__pfet_g5v0d10v5 ad=0.29 pd=2.29 as=0.58 ps=4.58 w=2 l=1
X152 a_n4714_n1100# vb6 a_25480_9863# avdd sky130_fd_pr__pfet_g5v0d10v5 ad=0.58 pd=4.29 as=0.58 ps=4.29 w=4 l=1
X153 a_n3516_1892# a_n9274_3783# avss avss sky130_fd_pr__nfet_g5v0d10v5 ad=0.29 pd=2.29 as=0.29 ps=2.29 w=2 l=0.5
X154 a_174_6041# enab_avdd net21 avdd sky130_fd_pr__pfet_g5v0d10v5 ad=1.16 pd=8.58 as=1.16 ps=8.58 w=4 l=0.5
X155 vb2 vb7 net24 avss sky130_fd_pr__nfet_g5v0d10v5 ad=0.29 pd=2.29 as=0.29 ps=2.29 w=2 l=1
X156 net13 vb5 avdd avdd sky130_fd_pr__pfet_g5v0d10v5 ad=0.58 pd=4.29 as=0.58 ps=4.29 w=4 l=1
X157 net1 vinn vtailp avdd sky130_fd_pr__pfet_g5v0d10v5 ad=0.87 pd=6.29 as=0.87 ps=6.29 w=6 l=1
X158 vtailp vb2 a_976_7241# avdd sky130_fd_pr__pfet_g5v0d10v5 ad=1.305 pd=9.29 as=1.305 ps=9.29 w=9 l=1
X159 a_n8454_3777# a_n9274_3783# dvdd dvdd sky130_fd_pr__pfet_01v8 ad=0.58 pd=4.58 as=0.58 ps=4.58 w=2 l=0.15
R4 a_32362_1144# a_32484_n286# sky130_fd_pr__res_generic_po w=0.4 l=5
X160 net12 vb3 vtailn avss sky130_fd_pr__nfet_g5v0d10v5 ad=0.6525 pd=4.79 as=0.6525 ps=4.79 w=4.5 l=1
X161 net3 vinn vtailn avss sky130_fd_pr__nfet_g5v0d10v5 ad=0.435 pd=3.29 as=0.435 ps=3.29 w=3 l=1
X162 avdd net18 vtailp avdd sky130_fd_pr__pfet_g5v0d10v5 ad=2.32 pd=16.289999 as=2.32 ps=16.289999 w=16 l=1
X163 avdd net35 a_n3516_1892# avdd sky130_fd_pr__pfet_g5v0d10v5 ad=0.58 pd=4.29 as=0.58 ps=4.29 w=4 l=0.5
X164 a_3546_7651# vb1 avdd avdd sky130_fd_pr__pfet_g5v0d10v5 ad=1.305 pd=9.29 as=1.305 ps=9.29 w=9 l=1
X165 vtailn a_n5918_1254# avss avss sky130_fd_pr__nfet_g5v0d10v5 ad=1.16 pd=8.29 as=1.16 ps=8.29 w=8 l=1
X166 net1 vb3 net6 avss sky130_fd_pr__nfet_g5v0d10v5 ad=0.87 pd=6.29 as=0.87 ps=6.29 w=6 l=1
X167 net1 vb3 net6 avss sky130_fd_pr__nfet_g5v0d10v5 ad=0.87 pd=6.29 as=0.87 ps=6.29 w=6 l=1
X168 net6 net10 net5 avss sky130_fd_pr__nfet_g5v0d10v5 ad=0.29 pd=2.29 as=0.29 ps=2.29 w=2 l=1
X169 a_3546_7651# vb2 vb1 avdd sky130_fd_pr__pfet_g5v0d10v5 ad=1.305 pd=9.29 as=1.305 ps=9.29 w=9 l=1
X170 net1 vinn vtailp avdd sky130_fd_pr__pfet_g5v0d10v5 ad=0.87 pd=6.29 as=0.87 ps=6.29 w=6 l=1
X171 net2 vb3 net8 avss sky130_fd_pr__nfet_g5v0d10v5 ad=0.87 pd=6.29 as=0.87 ps=6.29 w=6 l=1
X172 vtailp vinn net1 avdd sky130_fd_pr__pfet_g5v0d10v5 ad=0.87 pd=6.29 as=0.87 ps=6.29 w=6 l=1
X173 a_n410_3633# a_32728_1144# sky130_fd_pr__cap_mim_m3_1 l=12 w=12
X174 net20 net33 net21 avss sky130_fd_pr__nfet_g5v0d10v5 ad=0.29 pd=2.29 as=0.29 ps=2.29 w=2 l=2
X175 a_976_7241# vb2 vtailp avdd sky130_fd_pr__pfet_g5v0d10v5 ad=1.305 pd=9.29 as=1.305 ps=9.29 w=9 l=1
X176 a_976_7241# vb2 vtailp avdd sky130_fd_pr__pfet_g5v0d10v5 ad=1.305 pd=9.29 as=1.305 ps=9.29 w=9 l=1
X177 net4 vinp vtailn avss sky130_fd_pr__nfet_g5v0d10v5 ad=0.435 pd=3.29 as=0.435 ps=3.29 w=3 l=1
X178 avdd avdd vtailp avdd sky130_fd_pr__pfet_g5v0d10v5 ad=1.74 pd=12.58 as=0.87 ps=6.29 w=6 l=1
X179 a_n410_3633# a_32728_1144# sky130_fd_pr__cap_mim_m3_1 l=12 w=12
X180 net29 vb3 vb1 avss sky130_fd_pr__nfet_g5v0d10v5 ad=0.6525 pd=4.79 as=0.6525 ps=4.79 w=4.5 l=1
X181 avdd avdd vtailp avdd sky130_fd_pr__pfet_g5v0d10v5 ad=2.61 pd=18.58 as=1.305 ps=9.29 w=9 l=0.5
X182 avdd a_18664_3687# a_18664_3687# avdd sky130_fd_pr__pfet_g5v0d10v5 ad=0.58 pd=4.29 as=0.58 ps=4.29 w=4 l=1
X183 a_18786_1658# a_18786_1658# avss avss sky130_fd_pr__nfet_g5v0d10v5 ad=0.29 pd=2.29 as=0.29 ps=2.29 w=2 l=1
X184 ibias a_n3740_n2876# net33 avss sky130_fd_pr__nfet_g5v0d10v5 ad=0.58 pd=4.58 as=0.58 ps=4.58 w=2 l=0.5
X185 avss net8 vout avss sky130_fd_pr__nfet_g5v0d10v5 ad=1.45 pd=10.29 as=1.45 ps=10.29 w=10 l=1
X186 net5 net10 net6 avss sky130_fd_pr__nfet_g5v0d10v5 ad=0.29 pd=2.29 as=0.29 ps=2.29 w=2 l=1
X187 vb1 avdd avdd avdd sky130_fd_pr__pfet_g5v0d10v5 ad=1.305 pd=9.29 as=2.61 ps=18.58 w=9 l=1
X188 vb5 vb5 avdd avdd sky130_fd_pr__pfet_g5v0d10v5 ad=0.58 pd=4.29 as=0.58 ps=4.29 w=4 l=1
X189 net3 net5 avdd avdd sky130_fd_pr__pfet_g5v0d10v5 ad=1.74 pd=12.289999 as=1.74 ps=12.289999 w=12 l=1
X190 avss net6 net2 avss sky130_fd_pr__nfet_g5v0d10v5 ad=0.87 pd=6.29 as=0.87 ps=6.29 w=6 l=1
X191 net12 a_n4714_n1100# avss avss sky130_fd_pr__nfet_g5v0d10v5 ad=0.6525 pd=4.79 as=0.6525 ps=4.79 w=4.5 l=1
X192 avdd net18 vtailp avdd sky130_fd_pr__pfet_g5v0d10v5 ad=2.32 pd=16.289999 as=2.32 ps=16.289999 w=16 l=1
X193 net1 vinn vtailp avdd sky130_fd_pr__pfet_g5v0d10v5 ad=0.87 pd=6.29 as=0.87 ps=6.29 w=6 l=1
X194 vtailp vinn net1 avdd sky130_fd_pr__pfet_g5v0d10v5 ad=0.87 pd=6.29 as=0.87 ps=6.29 w=6 l=1
X195 a_n410_3633# net10 net8 avss sky130_fd_pr__nfet_g5v0d10v5 ad=0.29 pd=2.29 as=0.29 ps=2.29 w=2 l=1
X196 net13 a_n3740_n2876# avdd avdd sky130_fd_pr__pfet_g5v0d10v5 ad=1.16 pd=8.58 as=1.16 ps=8.58 w=4 l=0.5
X197 vtailp vb2 a_976_7241# avdd sky130_fd_pr__pfet_g5v0d10v5 ad=1.305 pd=9.29 as=1.305 ps=9.29 w=9 l=1
X198 net8 a_32850_1144# sky130_fd_pr__cap_mim_m3_1 l=12 w=12
X199 avss avss net24 avss sky130_fd_pr__nfet_g5v0d10v5 ad=0.29 pd=2.29 as=0.29 ps=2.29 w=2 l=1
X200 vtailn vinp net4 avss sky130_fd_pr__nfet_g5v0d10v5 ad=0.435 pd=3.29 as=0.435 ps=3.29 w=3 l=1
X201 a_n9274_3783# ena dvss dvss sky130_fd_pr__nfet_01v8 ad=0.29 pd=2.58 as=0.29 ps=2.58 w=1 l=0.15
X202 vtailp vinn net1 avdd sky130_fd_pr__pfet_g5v0d10v5 ad=0.87 pd=6.29 as=0.87 ps=6.29 w=6 l=1
X203 avss a_n5918_1254# vtailn avss sky130_fd_pr__nfet_g5v0d10v5 ad=1.16 pd=8.29 as=1.16 ps=8.29 w=8 l=1
X204 a_n410_3633# a_32728_1144# sky130_fd_pr__cap_mim_m3_1 l=12 w=12
X205 net12 vb3 vtailn avss sky130_fd_pr__nfet_g5v0d10v5 ad=0.6525 pd=4.79 as=0.6525 ps=4.79 w=4.5 l=1
X206 avdd vb5 a_23416_9863# avdd sky130_fd_pr__pfet_g5v0d10v5 ad=0.58 pd=4.29 as=0.58 ps=4.29 w=4 l=1
X207 net24 avss avss avss sky130_fd_pr__nfet_g5v0d10v5 ad=0.29 pd=2.29 as=0.29 ps=2.29 w=2 l=1
X208 vout net8 avss avss sky130_fd_pr__nfet_g5v0d10v5 ad=1.45 pd=10.29 as=1.45 ps=10.29 w=10 l=1
X209 vtailn vinp net4 avss sky130_fd_pr__nfet_g5v0d10v5 ad=0.435 pd=3.29 as=0.435 ps=3.29 w=3 l=1
X210 avdd net5 net4 avdd sky130_fd_pr__pfet_g5v0d10v5 ad=1.74 pd=12.289999 as=1.74 ps=12.289999 w=12 l=1
X211 avdd net5 net3 avdd sky130_fd_pr__pfet_g5v0d10v5 ad=1.74 pd=12.289999 as=1.74 ps=12.289999 w=12 l=1
X212 vb8 enab_avdd avss avss sky130_fd_pr__nfet_g5v0d10v5 ad=0.58 pd=4.58 as=0.58 ps=4.58 w=2 l=0.5
X213 avss a_n5918_1254# vtailn avss sky130_fd_pr__nfet_g5v0d10v5 ad=1.16 pd=8.29 as=1.16 ps=8.29 w=8 l=1
X214 avdd vb1 a_976_7241# avdd sky130_fd_pr__pfet_g5v0d10v5 ad=1.305 pd=9.29 as=1.305 ps=9.29 w=9 l=1
X215 vtailp vinn net1 avdd sky130_fd_pr__pfet_g5v0d10v5 ad=0.87 pd=6.29 as=0.87 ps=6.29 w=6 l=1
X216 net8 avss avss avss sky130_fd_pr__nfet_g5v0d10v5 ad=0.29 pd=2.29 as=0.29 ps=2.29 w=2 l=1
X217 net4 vinp vtailn avss sky130_fd_pr__nfet_g5v0d10v5 ad=0.435 pd=3.29 as=0.435 ps=3.29 w=3 l=1
X218 vout a_n410_3633# avdd avdd sky130_fd_pr__pfet_g5v0d10v5 ad=3.625 pd=25.289999 as=3.625 ps=25.289999 w=25 l=1
X219 net32 net22 avdd avdd sky130_fd_pr__pfet_g5v0d10v5 ad=0.29 pd=2.29 as=0.29 ps=2.29 w=2 l=1
X220 vtailp vinn net1 avdd sky130_fd_pr__pfet_g5v0d10v5 ad=0.87 pd=6.29 as=0.87 ps=6.29 w=6 l=1
X221 net4 avdd avdd avdd sky130_fd_pr__pfet_g5v0d10v5 ad=1.74 pd=12.289999 as=3.48 ps=24.579998 w=12 l=1
X222 net12 vb3 vtailn avss sky130_fd_pr__nfet_g5v0d10v5 ad=0.6525 pd=4.79 as=0.6525 ps=4.79 w=4.5 l=1
X223 vb5 vb6 vb6 avdd sky130_fd_pr__pfet_g5v0d10v5 ad=0.58 pd=4.29 as=0.58 ps=4.29 w=4 l=1
X224 vinp enab_avdd avss avss sky130_fd_pr__nfet_g5v0d10v5 ad=0.58 pd=4.58 as=0.58 ps=4.58 w=2 l=0.5
X225 vtailn vinn net3 avss sky130_fd_pr__nfet_g5v0d10v5 ad=0.435 pd=3.29 as=0.435 ps=3.29 w=3 l=1
X226 net4 vinp vtailn avss sky130_fd_pr__nfet_g5v0d10v5 ad=0.435 pd=3.29 as=0.435 ps=3.29 w=3 l=1
X227 net4 vinp vtailn avss sky130_fd_pr__nfet_g5v0d10v5 ad=0.435 pd=3.29 as=0.435 ps=3.29 w=3 l=1
X228 avdd avdd avdd avdd sky130_fd_pr__pfet_g5v0d10v5 ad=0.58 pd=4.29 as=0 ps=0 w=4 l=1
X229 avss avss net35 avss sky130_fd_pr__nfet_g5v0d10v5 ad=0.58 pd=4.58 as=0.29 ps=2.29 w=2 l=0.5
X230 net3 net5 avdd avdd sky130_fd_pr__pfet_g5v0d10v5 ad=1.74 pd=12.289999 as=1.74 ps=12.289999 w=12 l=1
X231 a_n4714_n1100# vb3 net28 avss sky130_fd_pr__nfet_g5v0d10v5 ad=0.6525 pd=4.79 as=0.6525 ps=4.79 w=4.5 l=1
X232 net20 avss avss avss sky130_fd_pr__nfet_g5v0d10v5 ad=0.29 pd=2.29 as=0.29 ps=2.29 w=2 l=2
X233 net33 enab_avdd avss avss sky130_fd_pr__nfet_g5v0d10v5 ad=0.58 pd=4.58 as=0.58 ps=4.58 w=2 l=0.5
X234 avss avss net16 avss sky130_fd_pr__nfet_g5v0d10v5 ad=0.29 pd=2.29 as=0.29 ps=2.29 w=2 l=1
X235 avss net8 vout avss sky130_fd_pr__nfet_g5v0d10v5 ad=1.45 pd=10.29 as=1.45 ps=10.29 w=10 l=1
X236 avss net31 net20 avss sky130_fd_pr__nfet_g5v0d10v5 ad=0.29 pd=2.29 as=0.29 ps=2.29 w=2 l=2
X237 a_n410_3633# a_32728_1144# sky130_fd_pr__cap_mim_m3_1 l=12 w=12
X238 net4 net5 avdd avdd sky130_fd_pr__pfet_g5v0d10v5 ad=1.74 pd=12.289999 as=1.74 ps=12.289999 w=12 l=1
X239 vtailn a_n5918_1254# avss avss sky130_fd_pr__nfet_g5v0d10v5 ad=1.16 pd=8.29 as=1.16 ps=8.29 w=8 l=1
X240 avdd a_n410_3633# vout avdd sky130_fd_pr__pfet_g5v0d10v5 ad=3.625 pd=25.289999 as=3.625 ps=25.289999 w=25 l=1
X241 avdd vb5 a_25480_9863# avdd sky130_fd_pr__pfet_g5v0d10v5 ad=0.58 pd=4.29 as=0.58 ps=4.29 w=4 l=1
X242 net25 vb8 avss avss sky130_fd_pr__nfet_g5v0d10v5 ad=0.29 pd=2.29 as=0.29 ps=2.29 w=2 l=1
X243 net18 avss avss avss sky130_fd_pr__nfet_g5v0d10v5 ad=0.6525 pd=4.79 as=1.305 ps=9.58 w=4.5 l=0.5
X244 vb6 avdd avdd avdd sky130_fd_pr__pfet_g5v0d10v5 ad=0.58 pd=4.29 as=0.58 ps=4.29 w=4 l=1
X245 net10 enab_avdd avss avss sky130_fd_pr__nfet_g5v0d10v5 ad=0.58 pd=4.58 as=0.58 ps=4.58 w=2 l=0.5
X246 avss avss vb7 avss sky130_fd_pr__nfet_g5v0d10v5 ad=0.29 pd=2.29 as=0.29 ps=2.29 w=2 l=1
X247 net20 net33 net21 avss sky130_fd_pr__nfet_g5v0d10v5 ad=0.29 pd=2.29 as=0.29 ps=2.29 w=2 l=2
X248 net3 vinn vtailn avss sky130_fd_pr__nfet_g5v0d10v5 ad=0.435 pd=3.29 as=0.435 ps=3.29 w=3 l=1
X249 vtailn vinn net3 avss sky130_fd_pr__nfet_g5v0d10v5 ad=0.435 pd=3.29 as=0.435 ps=3.29 w=3 l=1
X250 vb5 a_n3740_n2876# avdd avdd sky130_fd_pr__pfet_g5v0d10v5 ad=1.16 pd=8.58 as=1.16 ps=8.58 w=4 l=0.5
X251 net4 a_n3740_n2876# avdd avdd sky130_fd_pr__pfet_g5v0d10v5 ad=1.16 pd=8.58 as=1.16 ps=8.58 w=4 l=0.5
X252 net20 avss avss avss sky130_fd_pr__nfet_g5v0d10v5 ad=0.29 pd=2.29 as=0.58 ps=4.58 w=2 l=2
X253 avdd vb1 a_976_7241# avdd sky130_fd_pr__pfet_g5v0d10v5 ad=1.305 pd=9.29 as=1.305 ps=9.29 w=9 l=1
X254 avss a_n4714_n1100# net12 avss sky130_fd_pr__nfet_g5v0d10v5 ad=0.6525 pd=4.79 as=0.6525 ps=4.79 w=4.5 l=1
X255 avss avss net20 avss sky130_fd_pr__nfet_g5v0d10v5 ad=0.58 pd=4.58 as=0.29 ps=2.29 w=2 l=2
X256 vout net8 avss avss sky130_fd_pr__nfet_g5v0d10v5 ad=1.45 pd=10.29 as=1.45 ps=10.29 w=10 l=1
X257 net13 vb5 avdd avdd sky130_fd_pr__pfet_g5v0d10v5 ad=0.58 pd=4.29 as=0.58 ps=4.29 w=4 l=1
X258 avss a_n5918_1254# a_n5918_1254# avss sky130_fd_pr__nfet_g5v0d10v5 ad=1.16 pd=8.29 as=1.16 ps=8.29 w=8 l=1
X259 avss a_n4714_n1100# net12 avss sky130_fd_pr__nfet_g5v0d10v5 ad=0.6525 pd=4.79 as=0.6525 ps=4.79 w=4.5 l=1
X260 net10 avss avss avss sky130_fd_pr__nfet_g5v0d10v5 ad=0.29 pd=2.29 as=0.58 ps=4.58 w=2 l=1
X261 a_976_7241# vb1 avdd avdd sky130_fd_pr__pfet_g5v0d10v5 ad=1.305 pd=9.29 as=1.305 ps=9.29 w=9 l=1
X262 avdd avdd avdd avdd sky130_fd_pr__pfet_g5v0d10v5 ad=2.32 pd=16.289999 as=0 ps=0 w=16 l=1
X263 net22 enab_avdd net32 avdd sky130_fd_pr__pfet_g5v0d10v5 ad=1.16 pd=8.58 as=1.16 ps=8.58 w=4 l=0.5
X264 vout net8 avss avss sky130_fd_pr__nfet_g5v0d10v5 ad=1.45 pd=10.29 as=1.45 ps=10.29 w=10 l=1
X265 net28 vb3 a_n4714_n1100# avss sky130_fd_pr__nfet_g5v0d10v5 ad=0.6525 pd=4.79 as=0.6525 ps=4.79 w=4.5 l=1
X266 avdd avdd avdd avdd sky130_fd_pr__pfet_g5v0d10v5 ad=0.58 pd=4.58 as=0 ps=0 w=2 l=1
X267 avdd avdd net10 avdd sky130_fd_pr__pfet_g5v0d10v5 ad=0.58 pd=4.29 as=0.58 ps=4.29 w=4 l=1
X268 avss vb8 net25 avss sky130_fd_pr__nfet_g5v0d10v5 ad=0.29 pd=2.29 as=0.29 ps=2.29 w=2 l=1
X269 net16 vb7 a_174_4837# avss sky130_fd_pr__nfet_g5v0d10v5 ad=0.29 pd=2.29 as=0.29 ps=2.29 w=2 l=1
X270 net25 vb8 avss avss sky130_fd_pr__nfet_g5v0d10v5 ad=0.29 pd=2.29 as=0.29 ps=2.29 w=2 l=1
X271 net18 vb3 vtailn avss sky130_fd_pr__nfet_g5v0d10v5 ad=0.6525 pd=4.79 as=0.6525 ps=4.79 w=4.5 l=0.5
X272 vb7 a_174_6041# a_n410_7245# avdd sky130_fd_pr__pfet_g5v0d10v5 ad=0.29 pd=2.29 as=0.29 ps=2.29 w=2 l=1
X273 avss a_n4714_n1100# net12 avss sky130_fd_pr__nfet_g5v0d10v5 ad=0.6525 pd=4.79 as=0.6525 ps=4.79 w=4.5 l=1
X274 net16 vb8 avss avss sky130_fd_pr__nfet_g5v0d10v5 ad=0.29 pd=2.29 as=0.29 ps=2.29 w=2 l=1
X275 vtailn avss avss avss sky130_fd_pr__nfet_g5v0d10v5 ad=1.16 pd=8.29 as=2.32 ps=16.58 w=8 l=1
X276 avdd net18 net18 avdd sky130_fd_pr__pfet_g5v0d10v5 ad=2.32 pd=16.289999 as=2.32 ps=16.289999 w=16 l=1
X277 a_n410_3633# vb2 net4 avdd sky130_fd_pr__pfet_g5v0d10v5 ad=1.74 pd=12.289999 as=1.74 ps=12.289999 w=12 l=1
X278 avdd a_n410_3633# vout avdd sky130_fd_pr__pfet_g5v0d10v5 ad=3.625 pd=25.289999 as=3.625 ps=25.289999 w=25 l=1
X279 avss net8 vout avss sky130_fd_pr__nfet_g5v0d10v5 ad=1.45 pd=10.29 as=1.45 ps=10.29 w=10 l=1
X280 avdd a_n3516_1892# net35 avdd sky130_fd_pr__pfet_g5v0d10v5 ad=0.58 pd=4.29 as=0.58 ps=4.29 w=4 l=0.5
X281 net10 vb6 net13 avdd sky130_fd_pr__pfet_g5v0d10v5 ad=0.58 pd=4.29 as=0.58 ps=4.29 w=4 l=1
X282 a_n410_3633# a_32728_1144# sky130_fd_pr__cap_mim_m3_1 l=12 w=12
X283 a_25480_9863# vb5 avdd avdd sky130_fd_pr__pfet_g5v0d10v5 ad=0.58 pd=4.29 as=0.58 ps=4.29 w=4 l=1
X284 vb6 vb7 net25 avss sky130_fd_pr__nfet_g5v0d10v5 ad=0.29 pd=2.29 as=0.29 ps=2.29 w=2 l=1
X285 avss a_n4714_n1100# net12 avss sky130_fd_pr__nfet_g5v0d10v5 ad=0.6525 pd=4.79 as=0.6525 ps=4.79 w=4.5 l=1
X286 a_976_7241# vb1 avdd avdd sky130_fd_pr__pfet_g5v0d10v5 ad=1.305 pd=9.29 as=1.305 ps=9.29 w=9 l=1
X287 a_n5918_1254# vb2 vtailp avdd sky130_fd_pr__pfet_g5v0d10v5 ad=1.305 pd=9.29 as=1.305 ps=9.29 w=9 l=0.5
X288 net12 avss avss avss sky130_fd_pr__nfet_g5v0d10v5 ad=0.6525 pd=4.79 as=1.305 ps=9.58 w=4.5 l=1
X289 avdd avdd avdd avdd sky130_fd_pr__pfet_g5v0d10v5 ad=0.58 pd=4.29 as=0 ps=0 w=4 l=1
X290 vtailn a_n5918_1254# avss avss sky130_fd_pr__nfet_g5v0d10v5 ad=1.16 pd=8.29 as=1.16 ps=8.29 w=8 l=1
X291 a_n410_3633# a_32728_1144# sky130_fd_pr__cap_mim_m3_1 l=12 w=12
X292 vout net8 avss avss sky130_fd_pr__nfet_g5v0d10v5 ad=1.45 pd=10.29 as=1.45 ps=10.29 w=10 l=1
X293 vb3 vb6 a_23416_9863# avdd sky130_fd_pr__pfet_g5v0d10v5 ad=0.58 pd=4.29 as=0.58 ps=4.29 w=4 l=1
X294 vtailn vinn net3 avss sky130_fd_pr__nfet_g5v0d10v5 ad=0.435 pd=3.29 as=0.435 ps=3.29 w=3 l=1
X295 vb3 enab_avdd avss avss sky130_fd_pr__nfet_g5v0d10v5 ad=0.58 pd=4.58 as=0.58 ps=4.58 w=2 l=0.5
X296 a_n8454_3777# a_n9274_3783# dvss dvss sky130_fd_pr__nfet_01v8 ad=0.29 pd=2.58 as=0.29 ps=2.58 w=1 l=0.15