* NGSPICE file created from sky130_td_ip_opamp_hp.ext - technology: sky130A

.subckt sky130_fd_pr__pfet_g5v0d10v5_W75H7K a_n4673_n1200# a_4873_n1200# a_2093_n1264#
+ a_n4099_n1264# w_n5131_n1497# a_4099_n1200# a_745_n1200# a_1577_n1264# a_803_n1264#
+ a_n745_n1264# a_n1003_n1264# a_n545_n1200# a_4157_n1264# a_n3583_n1264# a_3583_n1200#
+ a_1003_n1200# a_n3383_n1200# a_n2867_n1200# a_3641_n1264# a_n2293_n1264# a_2293_n1200#
+ a_n1577_n1200# a_n2093_n1200# a_n4931_n1200# a_2351_n1264# a_n1777_n1264# a_n4357_n1264#
+ a_1777_n1200# a_n29_n1200# a_n4157_n1200# a_1835_n1264# a_4357_n1200# a_n803_n1200#
+ a_4415_n1264# a_n3841_n1264# a_229_n1200# a_n3641_n1200# a_n229_n1264# a_3841_n1200#
+ a_1061_n1264# a_n3067_n1264# a_3067_n1200# a_3125_n1264# a_n2551_n1264# a_n2351_n1200#
+ a_2609_n1264# a_2551_n1200# a_n1835_n1200# a_n4615_n1264# a_4615_n1200# a_n4415_n1200#
+ a_1319_n1264# a_n1261_n1264# a_1261_n1200# a_n1061_n1200# a_3899_n1264# a_287_n1264#
+ a_n3325_n1264# a_n3125_n1200# a_n2809_n1264# a_3325_n1200# a_n2609_n1200# a_2809_n1200#
+ a_n2035_n1264# a_2035_n1200# a_n1519_n1264# a_1519_n1200# a_n1319_n1200# a_487_n1200#
+ a_n3899_n1200# a_4673_n1264# a_545_n1264# a_29_n1264# a_n487_n1264# a_n287_n1200#
+ a_3383_n1264# a_2867_n1264# a_n4873_n1264#
X0 a_3067_n1200# a_2867_n1264# a_2809_n1200# w_n5131_n1497# sky130_fd_pr__pfet_g5v0d10v5 ad=1.74 pd=12.29 as=1.74 ps=12.29 w=12 l=1
X1 a_1777_n1200# a_1577_n1264# a_1519_n1200# w_n5131_n1497# sky130_fd_pr__pfet_g5v0d10v5 ad=1.74 pd=12.29 as=1.74 ps=12.29 w=12 l=1
X2 a_2809_n1200# a_2609_n1264# a_2551_n1200# w_n5131_n1497# sky130_fd_pr__pfet_g5v0d10v5 ad=1.74 pd=12.29 as=1.74 ps=12.29 w=12 l=1
X3 a_n4157_n1200# a_n4357_n1264# a_n4415_n1200# w_n5131_n1497# sky130_fd_pr__pfet_g5v0d10v5 ad=1.74 pd=12.29 as=1.74 ps=12.29 w=12 l=1
X4 a_1519_n1200# a_1319_n1264# a_1261_n1200# w_n5131_n1497# sky130_fd_pr__pfet_g5v0d10v5 ad=1.74 pd=12.29 as=1.74 ps=12.29 w=12 l=1
X5 a_4873_n1200# a_4673_n1264# a_4615_n1200# w_n5131_n1497# sky130_fd_pr__pfet_g5v0d10v5 ad=3.48 pd=24.58 as=1.74 ps=12.29 w=12 l=1
X6 a_3583_n1200# a_3383_n1264# a_3325_n1200# w_n5131_n1497# sky130_fd_pr__pfet_g5v0d10v5 ad=1.74 pd=12.29 as=1.74 ps=12.29 w=12 l=1
X7 a_4615_n1200# a_4415_n1264# a_4357_n1200# w_n5131_n1497# sky130_fd_pr__pfet_g5v0d10v5 ad=1.74 pd=12.29 as=1.74 ps=12.29 w=12 l=1
X8 a_n2867_n1200# a_n3067_n1264# a_n3125_n1200# w_n5131_n1497# sky130_fd_pr__pfet_g5v0d10v5 ad=1.74 pd=12.29 as=1.74 ps=12.29 w=12 l=1
X9 a_487_n1200# a_287_n1264# a_229_n1200# w_n5131_n1497# sky130_fd_pr__pfet_g5v0d10v5 ad=1.74 pd=12.29 as=1.74 ps=12.29 w=12 l=1
X10 a_2293_n1200# a_2093_n1264# a_2035_n1200# w_n5131_n1497# sky130_fd_pr__pfet_g5v0d10v5 ad=1.74 pd=12.29 as=1.74 ps=12.29 w=12 l=1
X11 a_3325_n1200# a_3125_n1264# a_3067_n1200# w_n5131_n1497# sky130_fd_pr__pfet_g5v0d10v5 ad=1.74 pd=12.29 as=1.74 ps=12.29 w=12 l=1
X12 a_n287_n1200# a_n487_n1264# a_n545_n1200# w_n5131_n1497# sky130_fd_pr__pfet_g5v0d10v5 ad=1.74 pd=12.29 as=1.74 ps=12.29 w=12 l=1
X13 a_n2609_n1200# a_n2809_n1264# a_n2867_n1200# w_n5131_n1497# sky130_fd_pr__pfet_g5v0d10v5 ad=1.74 pd=12.29 as=1.74 ps=12.29 w=12 l=1
X14 a_n1577_n1200# a_n1777_n1264# a_n1835_n1200# w_n5131_n1497# sky130_fd_pr__pfet_g5v0d10v5 ad=1.74 pd=12.29 as=1.74 ps=12.29 w=12 l=1
X15 a_n29_n1200# a_n229_n1264# a_n287_n1200# w_n5131_n1497# sky130_fd_pr__pfet_g5v0d10v5 ad=1.74 pd=12.29 as=1.74 ps=12.29 w=12 l=1
X16 a_n4673_n1200# a_n4873_n1264# a_n4931_n1200# w_n5131_n1497# sky130_fd_pr__pfet_g5v0d10v5 ad=1.74 pd=12.29 as=3.48 ps=24.58 w=12 l=1
X17 a_n1319_n1200# a_n1519_n1264# a_n1577_n1200# w_n5131_n1497# sky130_fd_pr__pfet_g5v0d10v5 ad=1.74 pd=12.29 as=1.74 ps=12.29 w=12 l=1
X18 a_2035_n1200# a_1835_n1264# a_1777_n1200# w_n5131_n1497# sky130_fd_pr__pfet_g5v0d10v5 ad=1.74 pd=12.29 as=1.74 ps=12.29 w=12 l=1
X19 a_n4415_n1200# a_n4615_n1264# a_n4673_n1200# w_n5131_n1497# sky130_fd_pr__pfet_g5v0d10v5 ad=1.74 pd=12.29 as=1.74 ps=12.29 w=12 l=1
X20 a_n3383_n1200# a_n3583_n1264# a_n3641_n1200# w_n5131_n1497# sky130_fd_pr__pfet_g5v0d10v5 ad=1.74 pd=12.29 as=1.74 ps=12.29 w=12 l=1
X21 a_n3125_n1200# a_n3325_n1264# a_n3383_n1200# w_n5131_n1497# sky130_fd_pr__pfet_g5v0d10v5 ad=1.74 pd=12.29 as=1.74 ps=12.29 w=12 l=1
X22 a_3841_n1200# a_3641_n1264# a_3583_n1200# w_n5131_n1497# sky130_fd_pr__pfet_g5v0d10v5 ad=1.74 pd=12.29 as=1.74 ps=12.29 w=12 l=1
X23 a_n2093_n1200# a_n2293_n1264# a_n2351_n1200# w_n5131_n1497# sky130_fd_pr__pfet_g5v0d10v5 ad=1.74 pd=12.29 as=1.74 ps=12.29 w=12 l=1
X24 a_745_n1200# a_545_n1264# a_487_n1200# w_n5131_n1497# sky130_fd_pr__pfet_g5v0d10v5 ad=1.74 pd=12.29 as=1.74 ps=12.29 w=12 l=1
X25 a_2551_n1200# a_2351_n1264# a_2293_n1200# w_n5131_n1497# sky130_fd_pr__pfet_g5v0d10v5 ad=1.74 pd=12.29 as=1.74 ps=12.29 w=12 l=1
X26 a_n1835_n1200# a_n2035_n1264# a_n2093_n1200# w_n5131_n1497# sky130_fd_pr__pfet_g5v0d10v5 ad=1.74 pd=12.29 as=1.74 ps=12.29 w=12 l=1
X27 a_1261_n1200# a_1061_n1264# a_1003_n1200# w_n5131_n1497# sky130_fd_pr__pfet_g5v0d10v5 ad=1.74 pd=12.29 as=1.74 ps=12.29 w=12 l=1
X28 a_n545_n1200# a_n745_n1264# a_n803_n1200# w_n5131_n1497# sky130_fd_pr__pfet_g5v0d10v5 ad=1.74 pd=12.29 as=1.74 ps=12.29 w=12 l=1
X29 a_229_n1200# a_29_n1264# a_n29_n1200# w_n5131_n1497# sky130_fd_pr__pfet_g5v0d10v5 ad=1.74 pd=12.29 as=1.74 ps=12.29 w=12 l=1
X30 a_4099_n1200# a_3899_n1264# a_3841_n1200# w_n5131_n1497# sky130_fd_pr__pfet_g5v0d10v5 ad=1.74 pd=12.29 as=1.74 ps=12.29 w=12 l=1
X31 a_n3641_n1200# a_n3841_n1264# a_n3899_n1200# w_n5131_n1497# sky130_fd_pr__pfet_g5v0d10v5 ad=1.74 pd=12.29 as=1.74 ps=12.29 w=12 l=1
X32 a_n2351_n1200# a_n2551_n1264# a_n2609_n1200# w_n5131_n1497# sky130_fd_pr__pfet_g5v0d10v5 ad=1.74 pd=12.29 as=1.74 ps=12.29 w=12 l=1
X33 a_1003_n1200# a_803_n1264# a_745_n1200# w_n5131_n1497# sky130_fd_pr__pfet_g5v0d10v5 ad=1.74 pd=12.29 as=1.74 ps=12.29 w=12 l=1
X34 a_n3899_n1200# a_n4099_n1264# a_n4157_n1200# w_n5131_n1497# sky130_fd_pr__pfet_g5v0d10v5 ad=1.74 pd=12.29 as=1.74 ps=12.29 w=12 l=1
X35 a_n1061_n1200# a_n1261_n1264# a_n1319_n1200# w_n5131_n1497# sky130_fd_pr__pfet_g5v0d10v5 ad=1.74 pd=12.29 as=1.74 ps=12.29 w=12 l=1
X36 a_4357_n1200# a_4157_n1264# a_4099_n1200# w_n5131_n1497# sky130_fd_pr__pfet_g5v0d10v5 ad=1.74 pd=12.29 as=1.74 ps=12.29 w=12 l=1
X37 a_n803_n1200# a_n1003_n1264# a_n1061_n1200# w_n5131_n1497# sky130_fd_pr__pfet_g5v0d10v5 ad=1.74 pd=12.29 as=1.74 ps=12.29 w=12 l=1
.ends

.subckt sky130_fd_pr__res_generic_po_PBHHR9
R0 a_265_500# a_265_n930# sky130_fd_pr__res_generic_po w=0.4 l=5
R1 a_n467_500# a_n467_n930# sky130_fd_pr__res_generic_po w=0.4 l=5
R2 a_n101_500# a_n101_n930# sky130_fd_pr__res_generic_po w=0.4 l=5
R3 a_21_500# a_21_n930# sky130_fd_pr__res_generic_po w=0.4 l=5
R4 a_143_500# a_143_n930# sky130_fd_pr__res_generic_po w=0.4 l=5
R5 a_n345_500# a_n345_n930# sky130_fd_pr__res_generic_po w=0.4 l=5
R6 a_387_500# a_387_n930# sky130_fd_pr__res_generic_po w=0.4 l=5
R7 a_n223_500# a_n223_n930# sky130_fd_pr__res_generic_po w=0.4 l=5
.ends

.subckt sky130_fd_pr__pfet_g5v0d10v5_WKXP7K a_n4673_n1200# a_4873_n1200# a_4931_n1264#
+ a_2093_n1264# a_n4099_n1264# a_4099_n1200# a_745_n1200# a_1577_n1264# a_803_n1264#
+ a_n745_n1264# a_n1003_n1264# a_n545_n1200# a_4157_n1264# a_n3583_n1264# a_3583_n1200#
+ a_1003_n1200# a_n3383_n1200# a_n2867_n1200# a_3641_n1264# a_n2293_n1264# a_2293_n1200#
+ a_n1577_n1200# a_n2093_n1200# a_n4931_n1200# a_2351_n1264# a_n1777_n1264# a_n4357_n1264#
+ a_1777_n1200# a_n29_n1200# a_n4157_n1200# a_1835_n1264# a_4357_n1200# a_n803_n1200#
+ a_4415_n1264# a_n3841_n1264# a_229_n1200# a_n3641_n1200# a_n229_n1264# a_3841_n1200#
+ a_1061_n1264# a_n3067_n1264# a_3067_n1200# a_3125_n1264# a_n2551_n1264# a_n2351_n1200#
+ a_2609_n1264# a_n5131_n1264# w_n5389_n1497# a_5131_n1200# a_2551_n1200# a_n1835_n1200#
+ a_n4615_n1264# a_4615_n1200# a_n4415_n1200# a_1319_n1264# a_n1261_n1264# a_1261_n1200#
+ a_n1061_n1200# a_3899_n1264# a_287_n1264# a_n3325_n1264# a_n3125_n1200# a_n2809_n1264#
+ a_3325_n1200# a_n2609_n1200# a_2809_n1200# a_n2035_n1264# a_2035_n1200# a_n1519_n1264#
+ a_1519_n1200# a_n1319_n1200# a_487_n1200# a_n3899_n1200# a_4673_n1264# a_545_n1264#
+ a_29_n1264# a_n487_n1264# a_n287_n1200# a_3383_n1264# a_n5189_n1200# a_2867_n1264#
+ a_n4873_n1264#
X0 a_3067_n1200# a_2867_n1264# a_2809_n1200# w_n5389_n1497# sky130_fd_pr__pfet_g5v0d10v5 ad=1.74 pd=12.29 as=1.74 ps=12.29 w=12 l=1
X1 a_1777_n1200# a_1577_n1264# a_1519_n1200# w_n5389_n1497# sky130_fd_pr__pfet_g5v0d10v5 ad=1.74 pd=12.29 as=1.74 ps=12.29 w=12 l=1
X2 a_2809_n1200# a_2609_n1264# a_2551_n1200# w_n5389_n1497# sky130_fd_pr__pfet_g5v0d10v5 ad=1.74 pd=12.29 as=1.74 ps=12.29 w=12 l=1
X3 a_n4157_n1200# a_n4357_n1264# a_n4415_n1200# w_n5389_n1497# sky130_fd_pr__pfet_g5v0d10v5 ad=1.74 pd=12.29 as=1.74 ps=12.29 w=12 l=1
X4 a_1519_n1200# a_1319_n1264# a_1261_n1200# w_n5389_n1497# sky130_fd_pr__pfet_g5v0d10v5 ad=1.74 pd=12.29 as=1.74 ps=12.29 w=12 l=1
X5 a_4873_n1200# a_4673_n1264# a_4615_n1200# w_n5389_n1497# sky130_fd_pr__pfet_g5v0d10v5 ad=1.74 pd=12.29 as=1.74 ps=12.29 w=12 l=1
X6 a_3583_n1200# a_3383_n1264# a_3325_n1200# w_n5389_n1497# sky130_fd_pr__pfet_g5v0d10v5 ad=1.74 pd=12.29 as=1.74 ps=12.29 w=12 l=1
X7 a_4615_n1200# a_4415_n1264# a_4357_n1200# w_n5389_n1497# sky130_fd_pr__pfet_g5v0d10v5 ad=1.74 pd=12.29 as=1.74 ps=12.29 w=12 l=1
X8 a_n2867_n1200# a_n3067_n1264# a_n3125_n1200# w_n5389_n1497# sky130_fd_pr__pfet_g5v0d10v5 ad=1.74 pd=12.29 as=1.74 ps=12.29 w=12 l=1
X9 a_487_n1200# a_287_n1264# a_229_n1200# w_n5389_n1497# sky130_fd_pr__pfet_g5v0d10v5 ad=1.74 pd=12.29 as=1.74 ps=12.29 w=12 l=1
X10 a_2293_n1200# a_2093_n1264# a_2035_n1200# w_n5389_n1497# sky130_fd_pr__pfet_g5v0d10v5 ad=1.74 pd=12.29 as=1.74 ps=12.29 w=12 l=1
X11 a_3325_n1200# a_3125_n1264# a_3067_n1200# w_n5389_n1497# sky130_fd_pr__pfet_g5v0d10v5 ad=1.74 pd=12.29 as=1.74 ps=12.29 w=12 l=1
X12 a_n287_n1200# a_n487_n1264# a_n545_n1200# w_n5389_n1497# sky130_fd_pr__pfet_g5v0d10v5 ad=1.74 pd=12.29 as=1.74 ps=12.29 w=12 l=1
X13 a_n2609_n1200# a_n2809_n1264# a_n2867_n1200# w_n5389_n1497# sky130_fd_pr__pfet_g5v0d10v5 ad=1.74 pd=12.29 as=1.74 ps=12.29 w=12 l=1
X14 a_n1577_n1200# a_n1777_n1264# a_n1835_n1200# w_n5389_n1497# sky130_fd_pr__pfet_g5v0d10v5 ad=1.74 pd=12.29 as=1.74 ps=12.29 w=12 l=1
X15 a_n29_n1200# a_n229_n1264# a_n287_n1200# w_n5389_n1497# sky130_fd_pr__pfet_g5v0d10v5 ad=1.74 pd=12.29 as=1.74 ps=12.29 w=12 l=1
X16 a_n4673_n1200# a_n4873_n1264# a_n4931_n1200# w_n5389_n1497# sky130_fd_pr__pfet_g5v0d10v5 ad=1.74 pd=12.29 as=1.74 ps=12.29 w=12 l=1
X17 a_n1319_n1200# a_n1519_n1264# a_n1577_n1200# w_n5389_n1497# sky130_fd_pr__pfet_g5v0d10v5 ad=1.74 pd=12.29 as=1.74 ps=12.29 w=12 l=1
X18 a_2035_n1200# a_1835_n1264# a_1777_n1200# w_n5389_n1497# sky130_fd_pr__pfet_g5v0d10v5 ad=1.74 pd=12.29 as=1.74 ps=12.29 w=12 l=1
X19 a_5131_n1200# a_4931_n1264# a_4873_n1200# w_n5389_n1497# sky130_fd_pr__pfet_g5v0d10v5 ad=3.48 pd=24.58 as=1.74 ps=12.29 w=12 l=1
X20 a_n4415_n1200# a_n4615_n1264# a_n4673_n1200# w_n5389_n1497# sky130_fd_pr__pfet_g5v0d10v5 ad=1.74 pd=12.29 as=1.74 ps=12.29 w=12 l=1
X21 a_n3383_n1200# a_n3583_n1264# a_n3641_n1200# w_n5389_n1497# sky130_fd_pr__pfet_g5v0d10v5 ad=1.74 pd=12.29 as=1.74 ps=12.29 w=12 l=1
X22 a_n3125_n1200# a_n3325_n1264# a_n3383_n1200# w_n5389_n1497# sky130_fd_pr__pfet_g5v0d10v5 ad=1.74 pd=12.29 as=1.74 ps=12.29 w=12 l=1
X23 a_3841_n1200# a_3641_n1264# a_3583_n1200# w_n5389_n1497# sky130_fd_pr__pfet_g5v0d10v5 ad=1.74 pd=12.29 as=1.74 ps=12.29 w=12 l=1
X24 a_n2093_n1200# a_n2293_n1264# a_n2351_n1200# w_n5389_n1497# sky130_fd_pr__pfet_g5v0d10v5 ad=1.74 pd=12.29 as=1.74 ps=12.29 w=12 l=1
X25 a_745_n1200# a_545_n1264# a_487_n1200# w_n5389_n1497# sky130_fd_pr__pfet_g5v0d10v5 ad=1.74 pd=12.29 as=1.74 ps=12.29 w=12 l=1
X26 a_2551_n1200# a_2351_n1264# a_2293_n1200# w_n5389_n1497# sky130_fd_pr__pfet_g5v0d10v5 ad=1.74 pd=12.29 as=1.74 ps=12.29 w=12 l=1
X27 a_n1835_n1200# a_n2035_n1264# a_n2093_n1200# w_n5389_n1497# sky130_fd_pr__pfet_g5v0d10v5 ad=1.74 pd=12.29 as=1.74 ps=12.29 w=12 l=1
X28 a_n4931_n1200# a_n5131_n1264# a_n5189_n1200# w_n5389_n1497# sky130_fd_pr__pfet_g5v0d10v5 ad=1.74 pd=12.29 as=3.48 ps=24.58 w=12 l=1
X29 a_1261_n1200# a_1061_n1264# a_1003_n1200# w_n5389_n1497# sky130_fd_pr__pfet_g5v0d10v5 ad=1.74 pd=12.29 as=1.74 ps=12.29 w=12 l=1
X30 a_n545_n1200# a_n745_n1264# a_n803_n1200# w_n5389_n1497# sky130_fd_pr__pfet_g5v0d10v5 ad=1.74 pd=12.29 as=1.74 ps=12.29 w=12 l=1
X31 a_229_n1200# a_29_n1264# a_n29_n1200# w_n5389_n1497# sky130_fd_pr__pfet_g5v0d10v5 ad=1.74 pd=12.29 as=1.74 ps=12.29 w=12 l=1
X32 a_4099_n1200# a_3899_n1264# a_3841_n1200# w_n5389_n1497# sky130_fd_pr__pfet_g5v0d10v5 ad=1.74 pd=12.29 as=1.74 ps=12.29 w=12 l=1
X33 a_n3641_n1200# a_n3841_n1264# a_n3899_n1200# w_n5389_n1497# sky130_fd_pr__pfet_g5v0d10v5 ad=1.74 pd=12.29 as=1.74 ps=12.29 w=12 l=1
X34 a_n2351_n1200# a_n2551_n1264# a_n2609_n1200# w_n5389_n1497# sky130_fd_pr__pfet_g5v0d10v5 ad=1.74 pd=12.29 as=1.74 ps=12.29 w=12 l=1
X35 a_1003_n1200# a_803_n1264# a_745_n1200# w_n5389_n1497# sky130_fd_pr__pfet_g5v0d10v5 ad=1.74 pd=12.29 as=1.74 ps=12.29 w=12 l=1
X36 a_n3899_n1200# a_n4099_n1264# a_n4157_n1200# w_n5389_n1497# sky130_fd_pr__pfet_g5v0d10v5 ad=1.74 pd=12.29 as=1.74 ps=12.29 w=12 l=1
X37 a_n1061_n1200# a_n1261_n1264# a_n1319_n1200# w_n5389_n1497# sky130_fd_pr__pfet_g5v0d10v5 ad=1.74 pd=12.29 as=1.74 ps=12.29 w=12 l=1
X38 a_4357_n1200# a_4157_n1264# a_4099_n1200# w_n5389_n1497# sky130_fd_pr__pfet_g5v0d10v5 ad=1.74 pd=12.29 as=1.74 ps=12.29 w=12 l=1
X39 a_n803_n1200# a_n1003_n1264# a_n1061_n1200# w_n5389_n1497# sky130_fd_pr__pfet_g5v0d10v5 ad=1.74 pd=12.29 as=1.74 ps=12.29 w=12 l=1
.ends

.subckt sky130_fd_pr__nfet_g5v0d10v5_CTEUHA a_50_n200# a_n242_n422# a_n108_n200# a_n50_n288#
X0 a_50_n200# a_n50_n288# a_n108_n200# a_n242_n422# sky130_fd_pr__nfet_g5v0d10v5 ad=0.58 pd=4.58 as=0.58 ps=4.58 w=2 l=0.5
.ends

.subckt sky130_fd_pr__pfet_g5v0d10v5_HQ4STX w_n358_n597# a_n158_n300# a_n100_n364#
+ a_100_n300#
X0 a_100_n300# a_n100_n364# a_n158_n300# w_n358_n597# sky130_fd_pr__pfet_g5v0d10v5 ad=0.87 pd=6.58 as=0.87 ps=6.58 w=3 l=1
.ends

.subckt sky130_fd_pr__nfet_g5v0d10v5_YJ3VXJ a_n287_n255# a_n345_n200# a_345_n255#
+ a_n445_n255# a_129_n200# a_n503_n200# a_287_n200# a_445_n200# a_n637_n422# a_n29_n200#
+ a_29_n255# a_n187_n200# a_n129_n255# a_187_n255#
X0 a_n187_n200# a_n287_n255# a_n345_n200# a_n637_n422# sky130_fd_pr__nfet_g5v0d10v5 ad=0.29 pd=2.29 as=0.29 ps=2.29 w=2 l=0.5
X1 a_287_n200# a_187_n255# a_129_n200# a_n637_n422# sky130_fd_pr__nfet_g5v0d10v5 ad=0.29 pd=2.29 as=0.29 ps=2.29 w=2 l=0.5
X2 a_n345_n200# a_n445_n255# a_n503_n200# a_n637_n422# sky130_fd_pr__nfet_g5v0d10v5 ad=0.29 pd=2.29 as=0.58 ps=4.58 w=2 l=0.5
X3 a_129_n200# a_29_n255# a_n29_n200# a_n637_n422# sky130_fd_pr__nfet_g5v0d10v5 ad=0.29 pd=2.29 as=0.29 ps=2.29 w=2 l=0.5
X4 a_445_n200# a_345_n255# a_287_n200# a_n637_n422# sky130_fd_pr__nfet_g5v0d10v5 ad=0.58 pd=4.58 as=0.29 ps=2.29 w=2 l=0.5
X5 a_n29_n200# a_n129_n255# a_n187_n200# a_n637_n422# sky130_fd_pr__nfet_g5v0d10v5 ad=0.29 pd=2.29 as=0.29 ps=2.29 w=2 l=0.5
.ends

.subckt sky130_fd_pr__nfet_g5v0d10v5_UKVZ7J a_1519_n450# a_n803_n450# a_n2093_n450#
+ a_n2551_n505# a_1261_n450# a_29_n505# a_n1777_n505# a_n3067_n505# a_n1319_n450#
+ a_n287_n450# a_n1061_n450# a_2867_n505# a_n745_n505# a_2809_n450# a_803_n505# a_n2035_n505#
+ a_745_n450# a_n3383_n450# a_2551_n450# a_3125_n505# a_1835_n505# a_3067_n450# a_1777_n450#
+ a_n2609_n450# a_n229_n505# a_n1003_n505# a_n2351_n450# a_287_n505# a_2093_n505#
+ a_229_n450# a_n1577_n450# a_n3325_n505# a_2035_n450# a_1319_n505# a_n545_n450# a_1061_n505#
+ a_n2293_n505# a_n3517_n672# a_1003_n450# a_n1519_n505# a_n2867_n450# a_n487_n505#
+ a_3325_n450# a_n1261_n505# a_2609_n505# a_n29_n450# a_545_n505# a_487_n450# a_2351_n505#
+ a_2293_n450# a_n1835_n450# a_n3125_n450# a_1577_n505# a_n2809_n505#
X0 a_n2351_n450# a_n2551_n505# a_n2609_n450# a_n3517_n672# sky130_fd_pr__nfet_g5v0d10v5 ad=0.6525 pd=4.79 as=0.6525 ps=4.79 w=4.5 l=1
X1 a_n2093_n450# a_n2293_n505# a_n2351_n450# a_n3517_n672# sky130_fd_pr__nfet_g5v0d10v5 ad=0.6525 pd=4.79 as=0.6525 ps=4.79 w=4.5 l=1
X2 a_229_n450# a_29_n505# a_n29_n450# a_n3517_n672# sky130_fd_pr__nfet_g5v0d10v5 ad=0.6525 pd=4.79 as=0.6525 ps=4.79 w=4.5 l=1
X3 a_n29_n450# a_n229_n505# a_n287_n450# a_n3517_n672# sky130_fd_pr__nfet_g5v0d10v5 ad=0.6525 pd=4.79 as=0.6525 ps=4.79 w=4.5 l=1
X4 a_3067_n450# a_2867_n505# a_2809_n450# a_n3517_n672# sky130_fd_pr__nfet_g5v0d10v5 ad=0.6525 pd=4.79 as=0.6525 ps=4.79 w=4.5 l=1
X5 a_n1319_n450# a_n1519_n505# a_n1577_n450# a_n3517_n672# sky130_fd_pr__nfet_g5v0d10v5 ad=0.6525 pd=4.79 as=0.6525 ps=4.79 w=4.5 l=1
X6 a_n545_n450# a_n745_n505# a_n803_n450# a_n3517_n672# sky130_fd_pr__nfet_g5v0d10v5 ad=0.6525 pd=4.79 as=0.6525 ps=4.79 w=4.5 l=1
X7 a_2551_n450# a_2351_n505# a_2293_n450# a_n3517_n672# sky130_fd_pr__nfet_g5v0d10v5 ad=0.6525 pd=4.79 as=0.6525 ps=4.79 w=4.5 l=1
X8 a_n3125_n450# a_n3325_n505# a_n3383_n450# a_n3517_n672# sky130_fd_pr__nfet_g5v0d10v5 ad=0.6525 pd=4.79 as=1.305 ps=9.58 w=4.5 l=1
X9 a_n287_n450# a_n487_n505# a_n545_n450# a_n3517_n672# sky130_fd_pr__nfet_g5v0d10v5 ad=0.6525 pd=4.79 as=0.6525 ps=4.79 w=4.5 l=1
X10 a_2293_n450# a_2093_n505# a_2035_n450# a_n3517_n672# sky130_fd_pr__nfet_g5v0d10v5 ad=0.6525 pd=4.79 as=0.6525 ps=4.79 w=4.5 l=1
X11 a_n2867_n450# a_n3067_n505# a_n3125_n450# a_n3517_n672# sky130_fd_pr__nfet_g5v0d10v5 ad=0.6525 pd=4.79 as=0.6525 ps=4.79 w=4.5 l=1
X12 a_n803_n450# a_n1003_n505# a_n1061_n450# a_n3517_n672# sky130_fd_pr__nfet_g5v0d10v5 ad=0.6525 pd=4.79 as=0.6525 ps=4.79 w=4.5 l=1
X13 a_n1577_n450# a_n1777_n505# a_n1835_n450# a_n3517_n672# sky130_fd_pr__nfet_g5v0d10v5 ad=0.6525 pd=4.79 as=0.6525 ps=4.79 w=4.5 l=1
X14 a_1519_n450# a_1319_n505# a_1261_n450# a_n3517_n672# sky130_fd_pr__nfet_g5v0d10v5 ad=0.6525 pd=4.79 as=0.6525 ps=4.79 w=4.5 l=1
X15 a_n1061_n450# a_n1261_n505# a_n1319_n450# a_n3517_n672# sky130_fd_pr__nfet_g5v0d10v5 ad=0.6525 pd=4.79 as=0.6525 ps=4.79 w=4.5 l=1
X16 a_3325_n450# a_3125_n505# a_3067_n450# a_n3517_n672# sky130_fd_pr__nfet_g5v0d10v5 ad=1.305 pd=9.58 as=0.6525 ps=4.79 w=4.5 l=1
X17 a_1003_n450# a_803_n505# a_745_n450# a_n3517_n672# sky130_fd_pr__nfet_g5v0d10v5 ad=0.6525 pd=4.79 as=0.6525 ps=4.79 w=4.5 l=1
X18 a_745_n450# a_545_n505# a_487_n450# a_n3517_n672# sky130_fd_pr__nfet_g5v0d10v5 ad=0.6525 pd=4.79 as=0.6525 ps=4.79 w=4.5 l=1
X19 a_487_n450# a_287_n505# a_229_n450# a_n3517_n672# sky130_fd_pr__nfet_g5v0d10v5 ad=0.6525 pd=4.79 as=0.6525 ps=4.79 w=4.5 l=1
X20 a_2035_n450# a_1835_n505# a_1777_n450# a_n3517_n672# sky130_fd_pr__nfet_g5v0d10v5 ad=0.6525 pd=4.79 as=0.6525 ps=4.79 w=4.5 l=1
X21 a_n2609_n450# a_n2809_n505# a_n2867_n450# a_n3517_n672# sky130_fd_pr__nfet_g5v0d10v5 ad=0.6525 pd=4.79 as=0.6525 ps=4.79 w=4.5 l=1
X22 a_1777_n450# a_1577_n505# a_1519_n450# a_n3517_n672# sky130_fd_pr__nfet_g5v0d10v5 ad=0.6525 pd=4.79 as=0.6525 ps=4.79 w=4.5 l=1
X23 a_1261_n450# a_1061_n505# a_1003_n450# a_n3517_n672# sky130_fd_pr__nfet_g5v0d10v5 ad=0.6525 pd=4.79 as=0.6525 ps=4.79 w=4.5 l=1
X24 a_n1835_n450# a_n2035_n505# a_n2093_n450# a_n3517_n672# sky130_fd_pr__nfet_g5v0d10v5 ad=0.6525 pd=4.79 as=0.6525 ps=4.79 w=4.5 l=1
X25 a_2809_n450# a_2609_n505# a_2551_n450# a_n3517_n672# sky130_fd_pr__nfet_g5v0d10v5 ad=0.6525 pd=4.79 as=0.6525 ps=4.79 w=4.5 l=1
.ends

.subckt sky130_fd_pr__nfet_g5v0d10v5_USXRNR a_1448_n255# a_1190_n255# a_358_n200#
+ a_n1648_n255# a_n1706_n200# a_100_n200# a_n674_n200# a_n616_n255# a_n1390_n255#
+ a_674_n255# a_1132_n200# a_n158_n200# a_158_n255# a_616_n200# a_n874_n255# a_n932_n200#
+ a_1648_n200# a_932_n255# a_1390_n200# a_n1448_n200# a_n358_n255# a_n416_n200# a_n1190_n200#
+ a_n1132_n255# a_874_n200# a_416_n255# a_n100_n255# a_n1840_n422#
X0 a_1648_n200# a_1448_n255# a_1390_n200# a_n1840_n422# sky130_fd_pr__nfet_g5v0d10v5 ad=0.58 pd=4.58 as=0.29 ps=2.29 w=2 l=1
X1 a_1132_n200# a_932_n255# a_874_n200# a_n1840_n422# sky130_fd_pr__nfet_g5v0d10v5 ad=0.29 pd=2.29 as=0.29 ps=2.29 w=2 l=1
X2 a_874_n200# a_674_n255# a_616_n200# a_n1840_n422# sky130_fd_pr__nfet_g5v0d10v5 ad=0.29 pd=2.29 as=0.29 ps=2.29 w=2 l=1
X3 a_1390_n200# a_1190_n255# a_1132_n200# a_n1840_n422# sky130_fd_pr__nfet_g5v0d10v5 ad=0.29 pd=2.29 as=0.29 ps=2.29 w=2 l=1
X4 a_100_n200# a_n100_n255# a_n158_n200# a_n1840_n422# sky130_fd_pr__nfet_g5v0d10v5 ad=0.29 pd=2.29 as=0.29 ps=2.29 w=2 l=1
X5 a_n416_n200# a_n616_n255# a_n674_n200# a_n1840_n422# sky130_fd_pr__nfet_g5v0d10v5 ad=0.29 pd=2.29 as=0.29 ps=2.29 w=2 l=1
X6 a_n158_n200# a_n358_n255# a_n416_n200# a_n1840_n422# sky130_fd_pr__nfet_g5v0d10v5 ad=0.29 pd=2.29 as=0.29 ps=2.29 w=2 l=1
X7 a_n1448_n200# a_n1648_n255# a_n1706_n200# a_n1840_n422# sky130_fd_pr__nfet_g5v0d10v5 ad=0.29 pd=2.29 as=0.58 ps=4.58 w=2 l=1
X8 a_n1190_n200# a_n1390_n255# a_n1448_n200# a_n1840_n422# sky130_fd_pr__nfet_g5v0d10v5 ad=0.29 pd=2.29 as=0.29 ps=2.29 w=2 l=1
X9 a_n674_n200# a_n874_n255# a_n932_n200# a_n1840_n422# sky130_fd_pr__nfet_g5v0d10v5 ad=0.29 pd=2.29 as=0.29 ps=2.29 w=2 l=1
X10 a_n932_n200# a_n1132_n255# a_n1190_n200# a_n1840_n422# sky130_fd_pr__nfet_g5v0d10v5 ad=0.29 pd=2.29 as=0.29 ps=2.29 w=2 l=1
X11 a_358_n200# a_158_n255# a_100_n200# a_n1840_n422# sky130_fd_pr__nfet_g5v0d10v5 ad=0.29 pd=2.29 as=0.29 ps=2.29 w=2 l=1
X12 a_616_n200# a_416_n255# a_358_n200# a_n1840_n422# sky130_fd_pr__nfet_g5v0d10v5 ad=0.29 pd=2.29 as=0.29 ps=2.29 w=2 l=1
.ends

.subckt sky130_fd_pr__pfet_g5v0d10v5_CVG6CD w_n308_n697#
X0 a_50_n400# a_n50_n464# a_n108_n400# w_n308_n697# sky130_fd_pr__pfet_g5v0d10v5 ad=1.16 pd=8.58 as=1.16 ps=8.58 w=4 l=0.5
.ends

.subckt sky130_fd_pr__pfet_g5v0d10v5_AUMBFF a_n2035_n2564# a_n1519_n2564# a_2035_n2500#
+ a_n1319_n2500# a_1519_n2500# a_n3899_n2500# a_487_n2500# a_545_n2564# a_29_n2564#
+ a_n487_n2564# a_n287_n2500# a_3383_n2564# a_2867_n2564# a_2093_n2564# a_n4099_n2564#
+ a_745_n2500# a_1577_n2564# a_803_n2564# a_n1003_n2564# w_n4615_n2797# a_4099_n2500#
+ a_n545_n2500# a_4157_n2564# a_n745_n2564# a_n3583_n2564# a_1003_n2500# a_n3383_n2500#
+ a_3583_n2500# a_n2867_n2500# a_3641_n2564# a_n2293_n2564# a_2293_n2500# a_n2093_n2500#
+ a_n1777_n2564# a_1777_n2500# a_n29_n2500# a_n1577_n2500# a_n4157_n2500# a_2351_n2564#
+ a_n4357_n2564# a_4357_n2500# a_1835_n2564# a_229_n2500# a_n803_n2500# a_n229_n2564#
+ a_n3841_n2564# a_3841_n2500# a_n3641_n2500# a_1061_n2564# a_n3067_n2564# a_3067_n2500#
+ a_3125_n2564# a_n2551_n2564# a_n2351_n2500# a_2609_n2564# a_2551_n2500# a_n1835_n2500#
+ a_n4415_n2500# a_1319_n2564# a_n1261_n2564# a_1261_n2500# a_n1061_n2500# a_3899_n2564#
+ a_n3125_n2500# a_287_n2564# a_n2809_n2564# a_n3325_n2564# a_3325_n2500# a_n2609_n2500#
+ a_2809_n2500#
X0 a_3067_n2500# a_2867_n2564# a_2809_n2500# w_n4615_n2797# sky130_fd_pr__pfet_g5v0d10v5 ad=3.625 pd=25.29 as=3.625 ps=25.29 w=25 l=1
X1 a_2809_n2500# a_2609_n2564# a_2551_n2500# w_n4615_n2797# sky130_fd_pr__pfet_g5v0d10v5 ad=3.625 pd=25.29 as=3.625 ps=25.29 w=25 l=1
X2 a_1777_n2500# a_1577_n2564# a_1519_n2500# w_n4615_n2797# sky130_fd_pr__pfet_g5v0d10v5 ad=3.625 pd=25.29 as=3.625 ps=25.29 w=25 l=1
X3 a_n4157_n2500# a_n4357_n2564# a_n4415_n2500# w_n4615_n2797# sky130_fd_pr__pfet_g5v0d10v5 ad=3.625 pd=25.29 as=7.25 ps=50.58 w=25 l=1
X4 a_1519_n2500# a_1319_n2564# a_1261_n2500# w_n4615_n2797# sky130_fd_pr__pfet_g5v0d10v5 ad=3.625 pd=25.29 as=3.625 ps=25.29 w=25 l=1
X5 a_3583_n2500# a_3383_n2564# a_3325_n2500# w_n4615_n2797# sky130_fd_pr__pfet_g5v0d10v5 ad=3.625 pd=25.29 as=3.625 ps=25.29 w=25 l=1
X6 a_n2867_n2500# a_n3067_n2564# a_n3125_n2500# w_n4615_n2797# sky130_fd_pr__pfet_g5v0d10v5 ad=3.625 pd=25.29 as=3.625 ps=25.29 w=25 l=1
X7 a_487_n2500# a_287_n2564# a_229_n2500# w_n4615_n2797# sky130_fd_pr__pfet_g5v0d10v5 ad=3.625 pd=25.29 as=3.625 ps=25.29 w=25 l=1
X8 a_2293_n2500# a_2093_n2564# a_2035_n2500# w_n4615_n2797# sky130_fd_pr__pfet_g5v0d10v5 ad=3.625 pd=25.29 as=3.625 ps=25.29 w=25 l=1
X9 a_3325_n2500# a_3125_n2564# a_3067_n2500# w_n4615_n2797# sky130_fd_pr__pfet_g5v0d10v5 ad=3.625 pd=25.29 as=3.625 ps=25.29 w=25 l=1
X10 a_n287_n2500# a_n487_n2564# a_n545_n2500# w_n4615_n2797# sky130_fd_pr__pfet_g5v0d10v5 ad=3.625 pd=25.29 as=3.625 ps=25.29 w=25 l=1
X11 a_n2609_n2500# a_n2809_n2564# a_n2867_n2500# w_n4615_n2797# sky130_fd_pr__pfet_g5v0d10v5 ad=3.625 pd=25.29 as=3.625 ps=25.29 w=25 l=1
X12 a_n1577_n2500# a_n1777_n2564# a_n1835_n2500# w_n4615_n2797# sky130_fd_pr__pfet_g5v0d10v5 ad=3.625 pd=25.29 as=3.625 ps=25.29 w=25 l=1
X13 a_n29_n2500# a_n229_n2564# a_n287_n2500# w_n4615_n2797# sky130_fd_pr__pfet_g5v0d10v5 ad=3.625 pd=25.29 as=3.625 ps=25.29 w=25 l=1
X14 a_2035_n2500# a_1835_n2564# a_1777_n2500# w_n4615_n2797# sky130_fd_pr__pfet_g5v0d10v5 ad=3.625 pd=25.29 as=3.625 ps=25.29 w=25 l=1
X15 a_n1319_n2500# a_n1519_n2564# a_n1577_n2500# w_n4615_n2797# sky130_fd_pr__pfet_g5v0d10v5 ad=3.625 pd=25.29 as=3.625 ps=25.29 w=25 l=1
X16 a_n3383_n2500# a_n3583_n2564# a_n3641_n2500# w_n4615_n2797# sky130_fd_pr__pfet_g5v0d10v5 ad=3.625 pd=25.29 as=3.625 ps=25.29 w=25 l=1
X17 a_3841_n2500# a_3641_n2564# a_3583_n2500# w_n4615_n2797# sky130_fd_pr__pfet_g5v0d10v5 ad=3.625 pd=25.29 as=3.625 ps=25.29 w=25 l=1
X18 a_n3125_n2500# a_n3325_n2564# a_n3383_n2500# w_n4615_n2797# sky130_fd_pr__pfet_g5v0d10v5 ad=3.625 pd=25.29 as=3.625 ps=25.29 w=25 l=1
X19 a_n2093_n2500# a_n2293_n2564# a_n2351_n2500# w_n4615_n2797# sky130_fd_pr__pfet_g5v0d10v5 ad=3.625 pd=25.29 as=3.625 ps=25.29 w=25 l=1
X20 a_745_n2500# a_545_n2564# a_487_n2500# w_n4615_n2797# sky130_fd_pr__pfet_g5v0d10v5 ad=3.625 pd=25.29 as=3.625 ps=25.29 w=25 l=1
X21 a_n1835_n2500# a_n2035_n2564# a_n2093_n2500# w_n4615_n2797# sky130_fd_pr__pfet_g5v0d10v5 ad=3.625 pd=25.29 as=3.625 ps=25.29 w=25 l=1
X22 a_2551_n2500# a_2351_n2564# a_2293_n2500# w_n4615_n2797# sky130_fd_pr__pfet_g5v0d10v5 ad=3.625 pd=25.29 as=3.625 ps=25.29 w=25 l=1
X23 a_1261_n2500# a_1061_n2564# a_1003_n2500# w_n4615_n2797# sky130_fd_pr__pfet_g5v0d10v5 ad=3.625 pd=25.29 as=3.625 ps=25.29 w=25 l=1
X24 a_n545_n2500# a_n745_n2564# a_n803_n2500# w_n4615_n2797# sky130_fd_pr__pfet_g5v0d10v5 ad=3.625 pd=25.29 as=3.625 ps=25.29 w=25 l=1
X25 a_229_n2500# a_29_n2564# a_n29_n2500# w_n4615_n2797# sky130_fd_pr__pfet_g5v0d10v5 ad=3.625 pd=25.29 as=3.625 ps=25.29 w=25 l=1
X26 a_4099_n2500# a_3899_n2564# a_3841_n2500# w_n4615_n2797# sky130_fd_pr__pfet_g5v0d10v5 ad=3.625 pd=25.29 as=3.625 ps=25.29 w=25 l=1
X27 a_n3641_n2500# a_n3841_n2564# a_n3899_n2500# w_n4615_n2797# sky130_fd_pr__pfet_g5v0d10v5 ad=3.625 pd=25.29 as=3.625 ps=25.29 w=25 l=1
X28 a_n2351_n2500# a_n2551_n2564# a_n2609_n2500# w_n4615_n2797# sky130_fd_pr__pfet_g5v0d10v5 ad=3.625 pd=25.29 as=3.625 ps=25.29 w=25 l=1
X29 a_1003_n2500# a_803_n2564# a_745_n2500# w_n4615_n2797# sky130_fd_pr__pfet_g5v0d10v5 ad=3.625 pd=25.29 as=3.625 ps=25.29 w=25 l=1
X30 a_n3899_n2500# a_n4099_n2564# a_n4157_n2500# w_n4615_n2797# sky130_fd_pr__pfet_g5v0d10v5 ad=3.625 pd=25.29 as=3.625 ps=25.29 w=25 l=1
X31 a_n1061_n2500# a_n1261_n2564# a_n1319_n2500# w_n4615_n2797# sky130_fd_pr__pfet_g5v0d10v5 ad=3.625 pd=25.29 as=3.625 ps=25.29 w=25 l=1
X32 a_n803_n2500# a_n1003_n2564# a_n1061_n2500# w_n4615_n2797# sky130_fd_pr__pfet_g5v0d10v5 ad=3.625 pd=25.29 as=3.625 ps=25.29 w=25 l=1
X33 a_4357_n2500# a_4157_n2564# a_4099_n2500# w_n4615_n2797# sky130_fd_pr__pfet_g5v0d10v5 ad=7.25 pd=50.58 as=3.625 ps=25.29 w=25 l=1
.ends

.subckt sky130_fd_pr__pfet_g5v0d10v5_QL2RRT a_29_n664# a_n1777_n664# a_n2351_n600#
+ a_n745_n664# a_229_n600# a_n1577_n600# a_2867_n664# a_2035_n600# a_803_n664# a_n2035_n664#
+ a_n545_n600# a_3125_n664# a_1835_n664# a_1003_n600# a_n229_n664# w_n3583_n897# a_287_n664#
+ a_n1003_n664# a_n2867_n600# a_3325_n600# a_2093_n664# a_n3325_n664# a_n29_n600#
+ a_487_n600# a_1319_n664# a_2293_n600# a_n3125_n600# a_n2293_n664# a_n1835_n600#
+ a_1061_n664# a_n803_n600# a_1519_n600# a_n2093_n600# a_n1519_n664# a_1261_n600#
+ a_n487_n664# a_n1261_n664# a_2609_n664# a_545_n664# a_n1319_n600# a_n287_n600# a_n1061_n600#
+ a_2351_n664# a_2809_n600# a_1577_n664# a_745_n600# a_n3383_n600# a_n2809_n664# a_2551_n600#
+ a_n2551_n664# a_3067_n600# a_1777_n600# a_n2609_n600# a_n3067_n664#
X0 a_n1835_n600# a_n2035_n664# a_n2093_n600# w_n3583_n897# sky130_fd_pr__pfet_g5v0d10v5 ad=0.87 pd=6.29 as=0.87 ps=6.29 w=6 l=1
X1 a_2809_n600# a_2609_n664# a_2551_n600# w_n3583_n897# sky130_fd_pr__pfet_g5v0d10v5 ad=0.87 pd=6.29 as=0.87 ps=6.29 w=6 l=1
X2 a_n2351_n600# a_n2551_n664# a_n2609_n600# w_n3583_n897# sky130_fd_pr__pfet_g5v0d10v5 ad=0.87 pd=6.29 as=0.87 ps=6.29 w=6 l=1
X3 a_n2093_n600# a_n2293_n664# a_n2351_n600# w_n3583_n897# sky130_fd_pr__pfet_g5v0d10v5 ad=0.87 pd=6.29 as=0.87 ps=6.29 w=6 l=1
X4 a_229_n600# a_29_n664# a_n29_n600# w_n3583_n897# sky130_fd_pr__pfet_g5v0d10v5 ad=0.87 pd=6.29 as=0.87 ps=6.29 w=6 l=1
X5 a_n29_n600# a_n229_n664# a_n287_n600# w_n3583_n897# sky130_fd_pr__pfet_g5v0d10v5 ad=0.87 pd=6.29 as=0.87 ps=6.29 w=6 l=1
X6 a_3067_n600# a_2867_n664# a_2809_n600# w_n3583_n897# sky130_fd_pr__pfet_g5v0d10v5 ad=0.87 pd=6.29 as=0.87 ps=6.29 w=6 l=1
X7 a_n1319_n600# a_n1519_n664# a_n1577_n600# w_n3583_n897# sky130_fd_pr__pfet_g5v0d10v5 ad=0.87 pd=6.29 as=0.87 ps=6.29 w=6 l=1
X8 a_n545_n600# a_n745_n664# a_n803_n600# w_n3583_n897# sky130_fd_pr__pfet_g5v0d10v5 ad=0.87 pd=6.29 as=0.87 ps=6.29 w=6 l=1
X9 a_2551_n600# a_2351_n664# a_2293_n600# w_n3583_n897# sky130_fd_pr__pfet_g5v0d10v5 ad=0.87 pd=6.29 as=0.87 ps=6.29 w=6 l=1
X10 a_n3125_n600# a_n3325_n664# a_n3383_n600# w_n3583_n897# sky130_fd_pr__pfet_g5v0d10v5 ad=0.87 pd=6.29 as=1.74 ps=12.58 w=6 l=1
X11 a_n287_n600# a_n487_n664# a_n545_n600# w_n3583_n897# sky130_fd_pr__pfet_g5v0d10v5 ad=0.87 pd=6.29 as=0.87 ps=6.29 w=6 l=1
X12 a_2293_n600# a_2093_n664# a_2035_n600# w_n3583_n897# sky130_fd_pr__pfet_g5v0d10v5 ad=0.87 pd=6.29 as=0.87 ps=6.29 w=6 l=1
X13 a_n2867_n600# a_n3067_n664# a_n3125_n600# w_n3583_n897# sky130_fd_pr__pfet_g5v0d10v5 ad=0.87 pd=6.29 as=0.87 ps=6.29 w=6 l=1
X14 a_n803_n600# a_n1003_n664# a_n1061_n600# w_n3583_n897# sky130_fd_pr__pfet_g5v0d10v5 ad=0.87 pd=6.29 as=0.87 ps=6.29 w=6 l=1
X15 a_n1577_n600# a_n1777_n664# a_n1835_n600# w_n3583_n897# sky130_fd_pr__pfet_g5v0d10v5 ad=0.87 pd=6.29 as=0.87 ps=6.29 w=6 l=1