* NGSPICE file created from sky130_td_ip__opamp_hp.ext - technology: sky130A

.subckt sky130_fd_pr__pfet_g5v0d10v5_W75H7K a_n4673_n1200# a_4873_n1200# a_2093_n1264#
+ a_n4099_n1264# w_n5131_n1497# a_4099_n1200# a_745_n1200# a_1577_n1264# a_803_n1264#
+ a_n745_n1264# a_n1003_n1264# a_n545_n1200# a_4157_n1264# a_n3583_n1264# a_3583_n1200#
+ a_1003_n1200# a_n3383_n1200# a_n2867_n1200# a_3641_n1264# a_n2293_n1264# a_2293_n1200#
+ a_n1577_n1200# a_n2093_n1200# a_n4931_n1200# a_2351_n1264# a_n1777_n1264# a_n4357_n1264#
+ a_1777_n1200# a_n29_n1200# a_n4157_n1200# a_1835_n1264# a_4357_n1200# a_n803_n1200#
+ a_4415_n1264# a_n3841_n1264# a_229_n1200# a_n3641_n1200# a_n229_n1264# a_3841_n1200#
+ a_1061_n1264# a_n3067_n1264# a_3067_n1200# a_3125_n1264# a_n2551_n1264# a_n2351_n1200#
+ a_2609_n1264# a_2551_n1200# a_n1835_n1200# a_n4615_n1264# a_4615_n1200# a_n4415_n1200#
+ a_1319_n1264# a_n1261_n1264# a_1261_n1200# a_n1061_n1200# a_3899_n1264# a_287_n1264#
+ a_n3325_n1264# a_n3125_n1200# a_n2809_n1264# a_3325_n1200# a_n2609_n1200# a_2809_n1200#
+ a_n2035_n1264# a_2035_n1200# a_n1519_n1264# a_1519_n1200# a_n1319_n1200# a_487_n1200#
+ a_n3899_n1200# a_4673_n1264# a_545_n1264# a_29_n1264# a_n487_n1264# a_n287_n1200#
+ a_3383_n1264# a_2867_n1264# a_n4873_n1264#
X0 a_3067_n1200# a_2867_n1264# a_2809_n1200# w_n5131_n1497# sky130_fd_pr__pfet_g5v0d10v5 ad=1.74 pd=12.29 as=1.74 ps=12.29 w=12 l=1
X1 a_1777_n1200# a_1577_n1264# a_1519_n1200# w_n5131_n1497# sky130_fd_pr__pfet_g5v0d10v5 ad=1.74 pd=12.29 as=1.74 ps=12.29 w=12 l=1
X2 a_2809_n1200# a_2609_n1264# a_2551_n1200# w_n5131_n1497# sky130_fd_pr__pfet_g5v0d10v5 ad=1.74 pd=12.29 as=1.74 ps=12.29 w=12 l=1
X3 a_n4157_n1200# a_n4357_n1264# a_n4415_n1200# w_n5131_n1497# sky130_fd_pr__pfet_g5v0d10v5 ad=1.74 pd=12.29 as=1.74 ps=12.29 w=12 l=1
X4 a_1519_n1200# a_1319_n1264# a_1261_n1200# w_n5131_n1497# sky130_fd_pr__pfet_g5v0d10v5 ad=1.74 pd=12.29 as=1.74 ps=12.29 w=12 l=1
X5 a_4873_n1200# a_4673_n1264# a_4615_n1200# w_n5131_n1497# sky130_fd_pr__pfet_g5v0d10v5 ad=3.48 pd=24.58 as=1.74 ps=12.29 w=12 l=1
X6 a_3583_n1200# a_3383_n1264# a_3325_n1200# w_n5131_n1497# sky130_fd_pr__pfet_g5v0d10v5 ad=1.74 pd=12.29 as=1.74 ps=12.29 w=12 l=1
X7 a_4615_n1200# a_4415_n1264# a_4357_n1200# w_n5131_n1497# sky130_fd_pr__pfet_g5v0d10v5 ad=1.74 pd=12.29 as=1.74 ps=12.29 w=12 l=1
X8 a_n2867_n1200# a_n3067_n1264# a_n3125_n1200# w_n5131_n1497# sky130_fd_pr__pfet_g5v0d10v5 ad=1.74 pd=12.29 as=1.74 ps=12.29 w=12 l=1
X9 a_487_n1200# a_287_n1264# a_229_n1200# w_n5131_n1497# sky130_fd_pr__pfet_g5v0d10v5 ad=1.74 pd=12.29 as=1.74 ps=12.29 w=12 l=1
X10 a_2293_n1200# a_2093_n1264# a_2035_n1200# w_n5131_n1497# sky130_fd_pr__pfet_g5v0d10v5 ad=1.74 pd=12.29 as=1.74 ps=12.29 w=12 l=1
X11 a_3325_n1200# a_3125_n1264# a_3067_n1200# w_n5131_n1497# sky130_fd_pr__pfet_g5v0d10v5 ad=1.74 pd=12.29 as=1.74 ps=12.29 w=12 l=1
X12 a_n287_n1200# a_n487_n1264# a_n545_n1200# w_n5131_n1497# sky130_fd_pr__pfet_g5v0d10v5 ad=1.74 pd=12.29 as=1.74 ps=12.29 w=12 l=1
X13 a_n2609_n1200# a_n2809_n1264# a_n2867_n1200# w_n5131_n1497# sky130_fd_pr__pfet_g5v0d10v5 ad=1.74 pd=12.29 as=1.74 ps=12.29 w=12 l=1
X14 a_n1577_n1200# a_n1777_n1264# a_n1835_n1200# w_n5131_n1497# sky130_fd_pr__pfet_g5v0d10v5 ad=1.74 pd=12.29 as=1.74 ps=12.29 w=12 l=1
X15 a_n29_n1200# a_n229_n1264# a_n287_n1200# w_n5131_n1497# sky130_fd_pr__pfet_g5v0d10v5 ad=1.74 pd=12.29 as=1.74 ps=12.29 w=12 l=1
X16 a_n4673_n1200# a_n4873_n1264# a_n4931_n1200# w_n5131_n1497# sky130_fd_pr__pfet_g5v0d10v5 ad=1.74 pd=12.29 as=3.48 ps=24.58 w=12 l=1
X17 a_n1319_n1200# a_n1519_n1264# a_n1577_n1200# w_n5131_n1497# sky130_fd_pr__pfet_g5v0d10v5 ad=1.74 pd=12.29 as=1.74 ps=12.29 w=12 l=1
X18 a_2035_n1200# a_1835_n1264# a_1777_n1200# w_n5131_n1497# sky130_fd_pr__pfet_g5v0d10v5 ad=1.74 pd=12.29 as=1.74 ps=12.29 w=12 l=1
X19 a_n4415_n1200# a_n4615_n1264# a_n4673_n1200# w_n5131_n1497# sky130_fd_pr__pfet_g5v0d10v5 ad=1.74 pd=12.29 as=1.74 ps=12.29 w=12 l=1
X20 a_n3383_n1200# a_n3583_n1264# a_n3641_n1200# w_n5131_n1497# sky130_fd_pr__pfet_g5v0d10v5 ad=1.74 pd=12.29 as=1.74 ps=12.29 w=12 l=1
X21 a_n3125_n1200# a_n3325_n1264# a_n3383_n1200# w_n5131_n1497# sky130_fd_pr__pfet_g5v0d10v5 ad=1.74 pd=12.29 as=1.74 ps=12.29 w=12 l=1
X22 a_3841_n1200# a_3641_n1264# a_3583_n1200# w_n5131_n1497# sky130_fd_pr__pfet_g5v0d10v5 ad=1.74 pd=12.29 as=1.74 ps=12.29 w=12 l=1
X23 a_n2093_n1200# a_n2293_n1264# a_n2351_n1200# w_n5131_n1497# sky130_fd_pr__pfet_g5v0d10v5 ad=1.74 pd=12.29 as=1.74 ps=12.29 w=12 l=1
X24 a_745_n1200# a_545_n1264# a_487_n1200# w_n5131_n1497# sky130_fd_pr__pfet_g5v0d10v5 ad=1.74 pd=12.29 as=1.74 ps=12.29 w=12 l=1
X25 a_2551_n1200# a_2351_n1264# a_2293_n1200# w_n5131_n1497# sky130_fd_pr__pfet_g5v0d10v5 ad=1.74 pd=12.29 as=1.74 ps=12.29 w=12 l=1
X26 a_n1835_n1200# a_n2035_n1264# a_n2093_n1200# w_n5131_n1497# sky130_fd_pr__pfet_g5v0d10v5 ad=1.74 pd=12.29 as=1.74 ps=12.29 w=12 l=1
X27 a_1261_n1200# a_1061_n1264# a_1003_n1200# w_n5131_n1497# sky130_fd_pr__pfet_g5v0d10v5 ad=1.74 pd=12.29 as=1.74 ps=12.29 w=12 l=1
X28 a_n545_n1200# a_n745_n1264# a_n803_n1200# w_n5131_n1497# sky130_fd_pr__pfet_g5v0d10v5 ad=1.74 pd=12.29 as=1.74 ps=12.29 w=12 l=1
X29 a_229_n1200# a_29_n1264# a_n29_n1200# w_n5131_n1497# sky130_fd_pr__pfet_g5v0d10v5 ad=1.74 pd=12.29 as=1.74 ps=12.29 w=12 l=1
X30 a_4099_n1200# a_3899_n1264# a_3841_n1200# w_n5131_n1497# sky130_fd_pr__pfet_g5v0d10v5 ad=1.74 pd=12.29 as=1.74 ps=12.29 w=12 l=1
X31 a_n3641_n1200# a_n3841_n1264# a_n3899_n1200# w_n5131_n1497# sky130_fd_pr__pfet_g5v0d10v5 ad=1.74 pd=12.29 as=1.74 ps=12.29 w=12 l=1
X32 a_n2351_n1200# a_n2551_n1264# a_n2609_n1200# w_n5131_n1497# sky130_fd_pr__pfet_g5v0d10v5 ad=1.74 pd=12.29 as=1.74 ps=12.29 w=12 l=1
X33 a_1003_n1200# a_803_n1264# a_745_n1200# w_n5131_n1497# sky130_fd_pr__pfet_g5v0d10v5 ad=1.74 pd=12.29 as=1.74 ps=12.29 w=12 l=1
X34 a_n3899_n1200# a_n4099_n1264# a_n4157_n1200# w_n5131_n1497# sky130_fd_pr__pfet_g5v0d10v5 ad=1.74 pd=12.29 as=1.74 ps=12.29 w=12 l=1
X35 a_n1061_n1200# a_n1261_n1264# a_n1319_n1200# w_n5131_n1497# sky130_fd_pr__pfet_g5v0d10v5 ad=1.74 pd=12.29 as=1.74 ps=12.29 w=12 l=1
X36 a_4357_n1200# a_4157_n1264# a_4099_n1200# w_n5131_n1497# sky130_fd_pr__pfet_g5v0d10v5 ad=1.74 pd=12.29 as=1.74 ps=12.29 w=12 l=1
X37 a_n803_n1200# a_n1003_n1264# a_n1061_n1200# w_n5131_n1497# sky130_fd_pr__pfet_g5v0d10v5 ad=1.74 pd=12.29 as=1.74 ps=12.29 w=12 l=1
C0 w_n5131_n1497# a_n2551_n1264# 0.307639f
C1 a_3841_n1200# a_4099_n1200# 0.655843f
C2 a_1061_n1264# w_n5131_n1497# 0.307639f
C3 a_229_n1200# a_487_n1200# 0.655843f
C4 a_n2351_n1200# a_n2551_n1264# 0.26189f
C5 a_545_n1264# w_n5131_n1497# 0.307639f
C6 a_n2093_n1200# a_n1835_n1200# 0.655843f
C7 a_n2093_n1200# a_n2293_n1264# 0.26189f
C8 a_2809_n1200# a_3067_n1200# 0.655843f
C9 w_n5131_n1497# a_1835_n1264# 0.307639f
C10 a_n2035_n1264# a_n2093_n1200# 0.26189f
C11 a_229_n1200# a_n29_n1200# 0.655843f
C12 w_n5131_n1497# a_4873_n1200# 0.69819f
C13 a_3841_n1200# a_3899_n1264# 0.26189f
C14 a_n3125_n1200# a_n2867_n1200# 0.655843f
C15 w_n5131_n1497# a_4157_n1264# 0.307639f
C16 a_n3383_n1200# a_n3325_n1264# 0.26189f
C17 a_n287_n1200# a_n487_n1264# 0.26189f
C18 a_n1261_n1264# w_n5131_n1497# 0.307639f
C19 a_n4873_n1264# a_n4931_n1200# 0.26189f
C20 a_3067_n1200# a_3325_n1200# 0.655843f
C21 a_n1519_n1264# a_n1319_n1200# 0.26189f
C22 a_803_n1264# a_1003_n1200# 0.26189f
C23 a_n3899_n1200# a_n4099_n1264# 0.26189f
C24 a_n3899_n1200# a_n3641_n1200# 0.655843f
C25 a_n2867_n1200# a_n2609_n1200# 0.655843f
C26 w_n5131_n1497# a_n745_n1264# 0.307639f
C27 a_n29_n1200# a_n229_n1264# 0.26189f
C28 a_2293_n1200# a_2351_n1264# 0.26189f
C29 a_3325_n1200# a_3583_n1200# 0.655843f
C30 a_n4157_n1200# a_n4415_n1200# 0.655843f
C31 a_4673_n1264# a_4873_n1200# 0.26189f
C32 a_n4615_n1264# w_n5131_n1497# 0.307639f
C33 w_n5131_n1497# a_n4357_n1264# 0.307639f
C34 w_n5131_n1497# a_n2293_n1264# 0.307639f
C35 a_n1835_n1200# a_n1577_n1200# 0.655843f
C36 a_n2351_n1200# a_n2293_n1264# 0.26189f
C37 a_n2609_n1200# a_n2351_n1200# 0.655843f
C38 a_n2035_n1264# w_n5131_n1497# 0.307639f
C39 a_n1777_n1264# a_n1835_n1200# 0.26189f
C40 a_3125_n1264# a_3067_n1200# 0.26189f
C41 a_2551_n1200# a_2609_n1264# 0.26189f
C42 a_3583_n1200# a_3841_n1200# 0.655843f
C43 a_n1061_n1200# a_n1261_n1264# 0.26189f
C44 a_2809_n1200# a_2609_n1264# 0.26189f
C45 a_1777_n1200# a_1577_n1264# 0.26189f
C46 a_545_n1264# a_487_n1200# 0.26189f
C47 a_n1577_n1200# a_n1319_n1200# 0.655843f
C48 a_3899_n1264# a_4099_n1200# 0.26189f
C49 a_3383_n1264# a_3325_n1200# 0.26189f
C50 a_3125_n1264# w_n5131_n1497# 0.307639f
C51 a_n803_n1200# a_n1003_n1264# 0.26189f
C52 a_1061_n1264# a_1003_n1200# 0.26189f
C53 w_n5131_n1497# a_n487_n1264# 0.307639f
C54 a_3067_n1200# a_2867_n1264# 0.26189f
C55 a_n3641_n1200# a_n3383_n1200# 0.655843f
C56 a_2035_n1200# a_1835_n1264# 0.26189f
C57 a_2351_n1264# w_n5131_n1497# 0.307639f
C58 a_n2867_n1200# a_n3067_n1264# 0.26189f
C59 a_4157_n1264# a_4357_n1200# 0.26189f
C60 a_n4931_n1200# w_n5131_n1497# 0.69819f
C61 a_n4673_n1200# a_n4615_n1264# 0.26189f
C62 a_n3383_n1200# a_n3583_n1264# 0.26189f
C63 a_3641_n1264# a_3583_n1200# 0.26189f
C64 a_3641_n1264# w_n5131_n1497# 0.307639f
C65 a_29_n1264# w_n5131_n1497# 0.307639f
C66 w_n5131_n1497# a_n3067_n1264# 0.307639f
C67 a_n545_n1200# a_n745_n1264# 0.26189f
C68 a_1319_n1264# a_1261_n1200# 0.26189f
C69 a_2293_n1200# a_2093_n1264# 0.26189f
C70 a_2867_n1264# w_n5131_n1497# 0.307639f
C71 a_n2609_n1200# a_n2809_n1264# 0.26189f
C72 a_n1061_n1200# a_n1319_n1200# 0.655843f
C73 a_4415_n1264# a_4615_n1200# 0.26189f
C74 a_29_n1264# a_229_n1200# 0.26189f
C75 a_n4873_n1264# w_n5131_n1497# 0.34286f
C76 a_2809_n1200# a_2551_n1200# 0.655843f
C77 a_n2609_n1200# a_n2551_n1264# 0.26189f
C78 a_287_n1264# w_n5131_n1497# 0.307639f
C79 a_n4157_n1200# a_n4099_n1264# 0.26189f
C80 w_n5131_n1497# a_1577_n1264# 0.307639f
C81 a_n3325_n1264# w_n5131_n1497# 0.307639f
C82 a_287_n1264# a_229_n1200# 0.26189f
C83 a_1319_n1264# w_n5131_n1497# 0.307639f
C84 w_n5131_n1497# a_3899_n1264# 0.307639f
C85 a_n4931_n1200# a_n4673_n1200# 0.655843f
C86 a_n545_n1200# a_n487_n1264# 0.26189f
C87 a_n1519_n1264# w_n5131_n1497# 0.307639f
C88 a_n2351_n1200# a_n2093_n1200# 0.655843f
C89 a_n1061_n1200# a_n803_n1200# 0.655843f
C90 w_n5131_n1497# a_2093_n1264# 0.307639f
C91 a_n3841_n1264# w_n5131_n1497# 0.307639f
C92 a_n1519_n1264# a_n1577_n1200# 0.26189f
C93 a_803_n1264# a_745_n1200# 0.26189f
C94 a_n3641_n1200# a_n3841_n1264# 0.26189f
C95 w_n5131_n1497# a_4415_n1264# 0.307639f
C96 a_n4673_n1200# a_n4415_n1200# 0.655843f
C97 w_n5131_n1497# a_n1003_n1264# 0.307639f
C98 a_n287_n1200# a_n229_n1264# 0.26189f
C99 a_n4873_n1264# a_n4673_n1200# 0.26189f
C100 a_n803_n1200# a_n545_n1200# 0.655843f
C101 a_4673_n1264# a_4615_n1200# 0.26189f
C102 a_n1261_n1264# a_n1319_n1200# 0.26189f
C103 a_29_n1264# a_n29_n1200# 0.26189f
C104 a_n2035_n1264# a_n1835_n1200# 0.26189f
C105 a_2551_n1200# a_2351_n1264# 0.26189f
C106 a_1519_n1200# a_1777_n1200# 0.655843f
C107 a_n3383_n1200# a_n3125_n1200# 0.655843f
C108 a_n545_n1200# a_n287_n1200# 0.655843f
C109 a_1519_n1200# a_1577_n1264# 0.26189f
C110 a_287_n1264# a_487_n1200# 0.26189f
C111 a_4099_n1200# a_4357_n1200# 0.655843f
C112 a_487_n1200# a_745_n1200# 0.655843f
C113 w_n5131_n1497# a_n4099_n1264# 0.307639f
C114 a_n1777_n1264# w_n5131_n1497# 0.307639f
C115 a_1319_n1264# a_1519_n1200# 0.26189f
C116 a_n1777_n1264# a_n1577_n1200# 0.26189f
C117 a_3125_n1264# a_3325_n1200# 0.26189f
C118 a_1777_n1200# a_2035_n1200# 0.655843f
C119 a_n287_n1200# a_n29_n1200# 0.655843f
C120 a_n1061_n1200# a_n1003_n1264# 0.26189f
C121 a_1261_n1200# a_1519_n1200# 0.655843f
C122 a_2809_n1200# a_2867_n1264# 0.26189f
C123 a_1777_n1200# a_1835_n1264# 0.26189f
C124 a_545_n1264# a_745_n1200# 0.26189f
C125 a_n3583_n1264# w_n5131_n1497# 0.307639f
C126 a_803_n1264# w_n5131_n1497# 0.307639f
C127 a_n3125_n1200# a_n3067_n1264# 0.26189f
C128 a_4357_n1200# a_4615_n1200# 0.655843f
C129 a_745_n1200# a_1003_n1200# 0.655843f
C130 a_4157_n1264# a_4099_n1200# 0.26189f
C131 a_4673_n1264# w_n5131_n1497# 0.34286f
C132 a_n3641_n1200# a_n3583_n1264# 0.26189f
C133 a_3383_n1264# a_3583_n1200# 0.26189f
C134 a_2035_n1200# a_2293_n1200# 0.655843f
C135 a_3383_n1264# w_n5131_n1497# 0.307639f
C136 a_n4157_n1200# a_n3899_n1200# 0.655843f
C137 a_n803_n1200# a_n745_n1264# 0.26189f
C138 a_1061_n1264# a_1261_n1200# 0.26189f
C139 w_n5131_n1497# a_n229_n1264# 0.307639f
C140 a_2035_n1200# a_2093_n1264# 0.26189f
C141 a_2609_n1264# w_n5131_n1497# 0.307639f
C142 a_n2867_n1200# a_n2809_n1264# 0.26189f
C143 a_4615_n1200# a_4873_n1200# 0.655843f
C144 a_1003_n1200# a_1261_n1200# 0.655843f
C145 a_4415_n1264# a_4357_n1200# 0.26189f
C146 a_n4415_n1200# a_n4615_n1264# 0.26189f
C147 a_n4415_n1200# a_n4357_n1264# 0.26189f
C148 a_3641_n1264# a_3841_n1200# 0.26189f
C149 a_2293_n1200# a_2551_n1200# 0.655843f
C150 a_n3125_n1200# a_n3325_n1264# 0.26189f
C151 w_n5131_n1497# a_n2809_n1264# 0.307639f
C152 a_n4157_n1200# a_n4357_n1264# 0.26189f
C153 a_n3899_n1200# a_n3841_n1264# 0.26189f
C154 a_4873_n1200# 0 0.58762f
C155 a_4615_n1200# 0 0.335348f
C156 a_4357_n1200# 0 0.335348f
C157 a_4099_n1200# 0 0.335348f
C158 a_3841_n1200# 0 0.335348f
C159 a_3583_n1200# 0 0.335348f
C160 a_3325_n1200# 0 0.335348f
C161 a_3067_n1200# 0 0.335348f
C162 a_2809_n1200# 0 0.335348f
C163 a_2551_n1200# 0 0.335348f
C164 a_2293_n1200# 0 0.335348f
C165 a_2035_n1200# 0 0.335348f
C166 a_1777_n1200# 0 0.335348f
C167 a_1519_n1200# 0 0.335348f
C168 a_1261_n1200# 0 0.335348f
C169 a_1003_n1200# 0 0.335348f
C170 a_745_n1200# 0 0.335348f
C171 a_487_n1200# 0 0.335348f
C172 a_229_n1200# 0 0.335348f
C173 a_n29_n1200# 0 0.335348f
C174 a_n287_n1200# 0 0.335348f
C175 a_n545_n1200# 0 0.335348f
C176 a_n803_n1200# 0 0.335348f
C177 a_n1061_n1200# 0 0.335348f
C178 a_n1319_n1200# 0 0.335348f
C179 a_n1577_n1200# 0 0.335348f
C180 a_n1835_n1200# 0 0.335348f
C181 a_n2093_n1200# 0 0.335348f
C182 a_n2351_n1200# 0 0.335348f
C183 a_n2609_n1200# 0 0.335348f
C184 a_n2867_n1200# 0 0.335348f
C185 a_n3125_n1200# 0 0.335348f
C186 a_n3383_n1200# 0 0.335348f
C187 a_n3641_n1200# 0 0.335348f
C188 a_n3899_n1200# 0 0.335348f
C189 a_n4157_n1200# 0 0.335348f
C190 a_n4415_n1200# 0 0.335348f
C191 a_n4673_n1200# 0 0.335348f
C192 a_n4931_n1200# 0 0.58762f
C193 a_4673_n1264# 0 0.253452f
C194 a_4415_n1264# 0 0.231023f
C195 a_4157_n1264# 0 0.231023f
C196 a_3899_n1264# 0 0.231023f
C197 a_3641_n1264# 0 0.231023f
C198 a_3383_n1264# 0 0.231023f
C199 a_3125_n1264# 0 0.231023f
C200 a_2867_n1264# 0 0.231023f
C201 a_2609_n1264# 0 0.231023f
C202 a_2351_n1264# 0 0.231023f
C203 a_2093_n1264# 0 0.231023f
C204 a_1835_n1264# 0 0.231023f
C205 a_1577_n1264# 0 0.231023f
C206 a_1319_n1264# 0 0.231023f
C207 a_1061_n1264# 0 0.231023f
C208 a_803_n1264# 0 0.231023f
C209 a_545_n1264# 0 0.231023f
C210 a_287_n1264# 0 0.231023f
C211 a_29_n1264# 0 0.231023f
C212 a_n229_n1264# 0 0.231023f
C213 a_n487_n1264# 0 0.231023f
C214 a_n745_n1264# 0 0.231023f
C215 a_n1003_n1264# 0 0.231023f
C216 a_n1261_n1264# 0 0.231023f
C217 a_n1519_n1264# 0 0.231023f
C218 a_n1777_n1264# 0 0.231023f
C219 a_n2035_n1264# 0 0.231023f
C220 a_n2293_n1264# 0 0.231023f
C221 a_n2551_n1264# 0 0.231023f
C222 a_n2809_n1264# 0 0.231023f
C223 a_n3067_n1264# 0 0.231023f
C224 a_n3325_n1264# 0 0.231023f
C225 a_n3583_n1264# 0 0.231023f
C226 a_n3841_n1264# 0 0.231023f
C227 a_n4099_n1264# 0 0.231023f
C228 a_n4357_n1264# 0 0.231023f
C229 a_n4615_n1264# 0 0.231023f
C230 a_n4873_n1264# 0 0.253452f
C231 w_n5131_n1497# 0 99.8345f
.ends

.subckt sky130_fd_pr__pfet_g5v0d10v5_CVG6CD a_50_n400# w_n308_n697# a_n50_n464# a_n108_n400#
X0 a_50_n400# a_n50_n464# a_n108_n400# w_n308_n697# sky130_fd_pr__pfet_g5v0d10v5 ad=1.16 pd=8.58 as=1.16 ps=8.58 w=4 l=0.5
C0 w_n308_n697# a_50_n400# 0.249352f
C1 w_n308_n697# a_n50_n464# 0.259326f
C2 w_n308_n697# a_n108_n400# 0.249352f
C3 a_n108_n400# a_50_n400# 0.357178f
C4 a_50_n400# 0 0.180042f
C5 a_n108_n400# 0 0.180042f
C6 a_n50_n464# 0 0.148749f
C7 w_n308_n697# 0 3.40572f
.ends

.subckt sky130_fd_pr__pfet_g5v0d10v5_WKXP7K a_n4673_n1200# a_4873_n1200# a_4931_n1264#
+ a_2093_n1264# a_n4099_n1264# a_4099_n1200# a_745_n1200# a_1577_n1264# a_803_n1264#
+ a_n745_n1264# a_n1003_n1264# a_n545_n1200# a_4157_n1264# a_n3583_n1264# a_3583_n1200#
+ a_1003_n1200# a_n3383_n1200# a_n2867_n1200# a_3641_n1264# a_n2293_n1264# a_2293_n1200#
+ a_n1577_n1200# a_n2093_n1200# a_n4931_n1200# a_2351_n1264# a_n1777_n1264# a_n4357_n1264#
+ a_1777_n1200# a_n29_n1200# a_n4157_n1200# a_1835_n1264# a_4357_n1200# a_n803_n1200#
+ a_4415_n1264# a_n3841_n1264# a_229_n1200# a_n3641_n1200# a_n229_n1264# a_3841_n1200#
+ a_1061_n1264# a_n3067_n1264# a_3067_n1200# a_3125_n1264# a_n2551_n1264# a_n2351_n1200#
+ a_2609_n1264# a_n5131_n1264# w_n5389_n1497# a_5131_n1200# a_2551_n1200# a_n1835_n1200#
+ a_n4615_n1264# a_4615_n1200# a_n4415_n1200# a_1319_n1264# a_n1261_n1264# a_1261_n1200#
+ a_n1061_n1200# a_3899_n1264# a_287_n1264# a_n3325_n1264# a_n3125_n1200# a_n2809_n1264#
+ a_3325_n1200# a_n2609_n1200# a_2809_n1200# a_n2035_n1264# a_2035_n1200# a_n1519_n1264#
+ a_1519_n1200# a_n1319_n1200# a_487_n1200# a_n3899_n1200# a_4673_n1264# a_545_n1264#
+ a_29_n1264# a_n487_n1264# a_n287_n1200# a_3383_n1264# a_n5189_n1200# a_2867_n1264#
+ a_n4873_n1264#
X0 a_3067_n1200# a_2867_n1264# a_2809_n1200# w_n5389_n1497# sky130_fd_pr__pfet_g5v0d10v5 ad=1.74 pd=12.29 as=1.74 ps=12.29 w=12 l=1
X1 a_1777_n1200# a_1577_n1264# a_1519_n1200# w_n5389_n1497# sky130_fd_pr__pfet_g5v0d10v5 ad=1.74 pd=12.29 as=1.74 ps=12.29 w=12 l=1
X2 a_2809_n1200# a_2609_n1264# a_2551_n1200# w_n5389_n1497# sky130_fd_pr__pfet_g5v0d10v5 ad=1.74 pd=12.29 as=1.74 ps=12.29 w=12 l=1
X3 a_n4157_n1200# a_n4357_n1264# a_n4415_n1200# w_n5389_n1497# sky130_fd_pr__pfet_g5v0d10v5 ad=1.74 pd=12.29 as=1.74 ps=12.29 w=12 l=1
X4 a_1519_n1200# a_1319_n1264# a_1261_n1200# w_n5389_n1497# sky130_fd_pr__pfet_g5v0d10v5 ad=1.74 pd=12.29 as=1.74 ps=12.29 w=12 l=1
X5 a_4873_n1200# a_4673_n1264# a_4615_n1200# w_n5389_n1497# sky130_fd_pr__pfet_g5v0d10v5 ad=1.74 pd=12.29 as=1.74 ps=12.29 w=12 l=1
X6 a_3583_n1200# a_3383_n1264# a_3325_n1200# w_n5389_n1497# sky130_fd_pr__pfet_g5v0d10v5 ad=1.74 pd=12.29 as=1.74 ps=12.29 w=12 l=1
X7 a_4615_n1200# a_4415_n1264# a_4357_n1200# w_n5389_n1497# sky130_fd_pr__pfet_g5v0d10v5 ad=1.74 pd=12.29 as=1.74 ps=12.29 w=12 l=1
X8 a_n2867_n1200# a_n3067_n1264# a_n3125_n1200# w_n5389_n1497# sky130_fd_pr__pfet_g5v0d10v5 ad=1.74 pd=12.29 as=1.74 ps=12.29 w=12 l=1
X9 a_487_n1200# a_287_n1264# a_229_n1200# w_n5389_n1497# sky130_fd_pr__pfet_g5v0d10v5 ad=1.74 pd=12.29 as=1.74 ps=12.29 w=12 l=1
X10 a_2293_n1200# a_2093_n1264# a_2035_n1200# w_n5389_n1497# sky130_fd_pr__pfet_g5v0d10v5 ad=1.74 pd=12.29 as=1.74 ps=12.29 w=12 l=1
X11 a_3325_n1200# a_3125_n1264# a_3067_n1200# w_n5389_n1497# sky130_fd_pr__pfet_g5v0d10v5 ad=1.74 pd=12.29 as=1.74 ps=12.29 w=12 l=1
X12 a_n287_n1200# a_n487_n1264# a_n545_n1200# w_n5389_n1497# sky130_fd_pr__pfet_g5v0d10v5 ad=1.74 pd=12.29 as=1.74 ps=12.29 w=12 l=1
X13 a_n2609_n1200# a_n2809_n1264# a_n2867_n1200# w_n5389_n1497# sky130_fd_pr__pfet_g5v0d10v5 ad=1.74 pd=12.29 as=1.74 ps=12.29 w=12 l=1
X14 a_n1577_n1200# a_n1777_n1264# a_n1835_n1200# w_n5389_n1497# sky130_fd_pr__pfet_g5v0d10v5 ad=1.74 pd=12.29 as=1.74 ps=12.29 w=12 l=1
X15 a_n29_n1200# a_n229_n1264# a_n287_n1200# w_n5389_n1497# sky130_fd_pr__pfet_g5v0d10v5 ad=1.74 pd=12.29 as=1.74 ps=12.29 w=12 l=1
X16 a_n4673_n1200# a_n4873_n1264# a_n4931_n1200# w_n5389_n1497# sky130_fd_pr__pfet_g5v0d10v5 ad=1.74 pd=12.29 as=1.74 ps=12.29 w=12 l=1
X17 a_n1319_n1200# a_n1519_n1264# a_n1577_n1200# w_n5389_n1497# sky130_fd_pr__pfet_g5v0d10v5 ad=1.74 pd=12.29 as=1.74 ps=12.29 w=12 l=1
X18 a_2035_n1200# a_1835_n1264# a_1777_n1200# w_n5389_n1497# sky130_fd_pr__pfet_g5v0d10v5 ad=1.74 pd=12.29 as=1.74 ps=12.29 w=12 l=1
X19 a_5131_n1200# a_4931_n1264# a_4873_n1200# w_n5389_n1497# sky130_fd_pr__pfet_g5v0d10v5 ad=3.48 pd=24.58 as=1.74 ps=12.29 w=12 l=1
X20 a_n4415_n1200# a_n4615_n1264# a_n4673_n1200# w_n5389_n1497# sky130_fd_pr__pfet_g5v0d10v5 ad=1.74 pd=12.29 as=1.74 ps=12.29 w=12 l=1
X21 a_n3383_n1200# a_n3583_n1264# a_n3641_n1200# w_n5389_n1497# sky130_fd_pr__pfet_g5v0d10v5 ad=1.74 pd=12.29 as=1.74 ps=12.29 w=12 l=1
X22 a_n3125_n1200# a_n3325_n1264# a_n3383_n1200# w_n5389_n1497# sky130_fd_pr__pfet_g5v0d10v5 ad=1.74 pd=12.29 as=1.74 ps=12.29 w=12 l=1
X23 a_3841_n1200# a_3641_n1264# a_3583_n1200# w_n5389_n1497# sky130_fd_pr__pfet_g5v0d10v5 ad=1.74 pd=12.29 as=1.74 ps=12.29 w=12 l=1
X24 a_n2093_n1200# a_n2293_n1264# a_n2351_n1200# w_n5389_n1497# sky130_fd_pr__pfet_g5v0d10v5 ad=1.74 pd=12.29 as=1.74 ps=12.29 w=12 l=1
X25 a_745_n1200# a_545_n1264# a_487_n1200# w_n5389_n1497# sky130_fd_pr__pfet_g5v0d10v5 ad=1.74 pd=12.29 as=1.74 ps=12.29 w=12 l=1
X26 a_2551_n1200# a_2351_n1264# a_2293_n1200# w_n5389_n1497# sky130_fd_pr__pfet_g5v0d10v5 ad=1.74 pd=12.29 as=1.74 ps=12.29 w=12 l=1
X27 a_n1835_n1200# a_n2035_n1264# a_n2093_n1200# w_n5389_n1497# sky130_fd_pr__pfet_g5v0d10v5 ad=1.74 pd=12.29 as=1.74 ps=12.29 w=12 l=1
X28 a_n4931_n1200# a_n5131_n1264# a_n5189_n1200# w_n5389_n1497# sky130_fd_pr__pfet_g5v0d10v5 ad=1.74 pd=12.29 as=3.48 ps=24.58 w=12 l=1
X29 a_1261_n1200# a_1061_n1264# a_1003_n1200# w_n5389_n1497# sky130_fd_pr__pfet_g5v0d10v5 ad=1.74 pd=12.29 as=1.74 ps=12.29 w=12 l=1
X30 a_n545_n1200# a_n745_n1264# a_n803_n1200# w_n5389_n1497# sky130_fd_pr__pfet_g5v0d10v5 ad=1.74 pd=12.29 as=1.74 ps=12.29 w=12 l=1
X31 a_229_n1200# a_29_n1264# a_n29_n1200# w_n5389_n1497# sky130_fd_pr__pfet_g5v0d10v5 ad=1.74 pd=12.29 as=1.74 ps=12.29 w=12 l=1
X32 a_4099_n1200# a_3899_n1264# a_3841_n1200# w_n5389_n1497# sky130_fd_pr__pfet_g5v0d10v5 ad=1.74 pd=12.29 as=1.74 ps=12.29 w=12 l=1
X33 a_n3641_n1200# a_n3841_n1264# a_n3899_n1200# w_n5389_n1497# sky130_fd_pr__pfet_g5v0d10v5 ad=1.74 pd=12.29 as=1.74 ps=12.29 w=12 l=1
X34 a_n2351_n1200# a_n2551_n1264# a_n2609_n1200# w_n5389_n1497# sky130_fd_pr__pfet_g5v0d10v5 ad=1.74 pd=12.29 as=1.74 ps=12.29 w=12 l=1
X35 a_1003_n1200# a_803_n1264# a_745_n1200# w_n5389_n1497# sky130_fd_pr__pfet_g5v0d10v5 ad=1.74 pd=12.29 as=1.74 ps=12.29 w=12 l=1
X36 a_n3899_n1200# a_n4099_n1264# a_n4157_n1200# w_n5389_n1497# sky130_fd_pr__pfet_g5v0d10v5 ad=1.74 pd=12.29 as=1.74 ps=12.29 w=12 l=1
X37 a_n1061_n1200# a_n1261_n1264# a_n1319_n1200# w_n5389_n1497# sky130_fd_pr__pfet_g5v0d10v5 ad=1.74 pd=12.29 as=1.74 ps=12.29 w=12 l=1
X38 a_4357_n1200# a_4157_n1264# a_4099_n1200# w_n5389_n1497# sky130_fd_pr__pfet_g5v0d10v5 ad=1.74 pd=12.29 as=1.74 ps=12.29 w=12 l=1
X39 a_n803_n1200# a_n1003_n1264# a_n1061_n1200# w_n5389_n1497# sky130_fd_pr__pfet_g5v0d10v5 ad=1.74 pd=12.29 as=1.74 ps=12.29 w=12 l=1
C0 a_n4157_n1200# a_n3899_n1200# 0.655843f
C1 a_n545_n1200# a_n287_n1200# 0.655843f
C2 w_n5389_n1497# a_n4615_n1264# 0.307639f
C3 a_n3899_n1200# a_n4099_n1264# 0.26189f
C4 a_n1577_n1200# a_n1319_n1200# 0.655843f
C5 a_1777_n1200# a_1835_n1264# 0.26189f
C6 a_n2293_n1264# a_n2093_n1200# 0.26189f
C7 a_2551_n1200# a_2609_n1264# 0.26189f
C8 a_n487_n1264# a_n287_n1200# 0.26189f
C9 a_n3841_n1264# a_n3899_n1200# 0.26189f
C10 w_n5389_n1497# a_n4099_n1264# 0.307639f
C11 a_n1835_n1200# a_n1777_n1264# 0.26189f
C12 a_n1519_n1264# a_n1577_n1200# 0.26189f
C13 a_3067_n1200# a_2867_n1264# 0.26189f
C14 a_n2035_n1264# a_n2093_n1200# 0.26189f
C15 a_1519_n1200# a_1319_n1264# 0.26189f
C16 a_n4673_n1200# a_n4873_n1264# 0.26189f
C17 a_n3841_n1264# w_n5389_n1497# 0.307639f
C18 a_n29_n1200# a_29_n1264# 0.26189f
C19 a_n2809_n1264# w_n5389_n1497# 0.307639f
C20 w_n5389_n1497# a_1577_n1264# 0.307639f
C21 a_229_n1200# a_29_n1264# 0.26189f
C22 a_3325_n1200# a_3383_n1264# 0.26189f
C23 a_n29_n1200# a_n287_n1200# 0.655843f
C24 a_n29_n1200# a_n229_n1264# 0.26189f
C25 a_745_n1200# a_803_n1264# 0.26189f
C26 w_n5389_n1497# a_3383_n1264# 0.307639f
C27 w_n5389_n1497# a_2867_n1264# 0.307639f
C28 w_n5389_n1497# a_4415_n1264# 0.307639f
C29 a_3841_n1200# a_4099_n1200# 0.655843f
C30 a_3899_n1264# w_n5389_n1497# 0.307639f
C31 a_3899_n1264# a_3841_n1200# 0.26189f
C32 a_n2609_n1200# a_n2351_n1200# 0.655843f
C33 a_n2867_n1200# a_n2809_n1264# 0.26189f
C34 w_n5389_n1497# a_n487_n1264# 0.307639f
C35 a_n1003_n1264# a_n1061_n1200# 0.26189f
C36 a_n1061_n1200# a_n1319_n1200# 0.655843f
C37 a_745_n1200# a_487_n1200# 0.655843f
C38 a_n2551_n1264# a_n2351_n1200# 0.26189f
C39 a_4357_n1200# a_4415_n1264# 0.26189f
C40 a_4357_n1200# a_4099_n1200# 0.655843f
C41 a_n3583_n1264# a_n3383_n1200# 0.26189f
C42 w_n5389_n1497# a_n5131_n1264# 0.34286f
C43 a_n5189_n1200# a_n4931_n1200# 0.655843f
C44 a_2551_n1200# a_2293_n1200# 0.655843f
C45 a_2809_n1200# a_2867_n1264# 0.26189f
C46 a_4615_n1200# a_4415_n1264# 0.26189f
C47 a_487_n1200# a_287_n1264# 0.26189f
C48 a_n3583_n1264# w_n5389_n1497# 0.307639f
C49 a_229_n1200# a_487_n1200# 0.655843f
C50 w_n5389_n1497# a_4157_n1264# 0.307639f
C51 a_n545_n1200# a_n803_n1200# 0.655843f
C52 w_n5389_n1497# a_287_n1264# 0.307639f
C53 w_n5389_n1497# a_n1777_n1264# 0.307639f
C54 a_n3841_n1264# a_n3641_n1200# 0.26189f
C55 a_2809_n1200# a_2551_n1200# 0.655843f
C56 a_n2609_n1200# a_n2551_n1264# 0.26189f
C57 a_n5189_n1200# a_n5131_n1264# 0.26189f
C58 a_n4415_n1200# a_n4615_n1264# 0.26189f
C59 a_545_n1264# a_487_n1200# 0.26189f
C60 a_n1519_n1264# a_n1319_n1200# 0.26189f
C61 a_1319_n1264# a_1261_n1200# 0.26189f
C62 a_4357_n1200# a_4157_n1264# 0.26189f
C63 a_1777_n1200# a_2035_n1200# 0.655843f
C64 a_545_n1264# w_n5389_n1497# 0.307639f
C65 a_n287_n1200# a_n229_n1264# 0.26189f
C66 a_3325_n1200# a_3583_n1200# 0.655843f
C67 w_n5389_n1497# a_n745_n1264# 0.307639f
C68 a_1519_n1200# a_1577_n1264# 0.26189f
C69 a_n4157_n1200# a_n4099_n1264# 0.26189f
C70 a_n4415_n1200# a_n4157_n1200# 0.655843f
C71 a_2551_n1200# a_2351_n1264# 0.26189f
C72 a_1261_n1200# a_1003_n1200# 0.655843f
C73 a_745_n1200# a_1003_n1200# 0.655843f
C74 w_n5389_n1497# a_1061_n1264# 0.307639f
C75 a_2093_n1264# a_2293_n1200# 0.26189f
C76 a_2093_n1264# w_n5389_n1497# 0.307639f
C77 a_3841_n1200# a_3583_n1200# 0.655843f
C78 w_n5389_n1497# a_1835_n1264# 0.307639f
C79 w_n5389_n1497# a_n4873_n1264# 0.307639f
C80 w_n5389_n1497# a_2609_n1264# 0.307639f
C81 a_n3325_n1264# a_n3383_n1200# 0.26189f
C82 w_n5389_n1497# a_29_n1264# 0.307639f
C83 a_n1003_n1264# w_n5389_n1497# 0.307639f
C84 a_n1061_n1200# a_n1261_n1264# 0.26189f
C85 a_2093_n1264# a_2035_n1200# 0.26189f
C86 a_1519_n1200# a_1261_n1200# 0.655843f
C87 w_n5389_n1497# a_n4357_n1264# 0.307639f
C88 w_n5389_n1497# a_5131_n1200# 0.69819f
C89 a_n3583_n1264# a_n3641_n1200# 0.26189f
C90 w_n5389_n1497# a_n3325_n1264# 0.307639f
C91 w_n5389_n1497# a_n2551_n1264# 0.307639f
C92 a_4931_n1264# a_5131_n1200# 0.26189f
C93 a_n2093_n1200# a_n2351_n1200# 0.655843f
C94 a_1519_n1200# a_1777_n1200# 0.655843f
C95 a_1835_n1264# a_2035_n1200# 0.26189f
C96 a_n2293_n1264# a_n2351_n1200# 0.26189f
C97 a_n803_n1200# a_n745_n1264# 0.26189f
C98 w_n5389_n1497# a_n229_n1264# 0.307639f
C99 a_2809_n1200# a_2609_n1264# 0.26189f
C100 a_1061_n1264# a_1003_n1200# 0.26189f
C101 a_n1519_n1264# w_n5389_n1497# 0.307639f
C102 a_3067_n1200# a_3325_n1200# 0.655843f
C103 a_n1061_n1200# a_n803_n1200# 0.655843f
C104 a_n1835_n1200# a_n2093_n1200# 0.655843f
C105 a_n2867_n1200# a_n2609_n1200# 0.655843f
C106 a_n1261_n1264# a_n1319_n1200# 0.26189f
C107 a_4673_n1264# w_n5389_n1497# 0.307639f
C108 a_n3125_n1200# a_n3325_n1264# 0.26189f
C109 w_n5389_n1497# a_803_n1264# 0.307639f
C110 a_n4673_n1200# a_n4615_n1264# 0.26189f
C111 a_3583_n1200# a_3641_n1264# 0.26189f
C112 a_3899_n1264# a_4099_n1200# 0.26189f
C113 a_n545_n1200# a_n487_n1264# 0.26189f
C114 a_3125_n1264# a_3067_n1200# 0.26189f
C115 a_n1835_n1200# a_n2035_n1264# 0.26189f
C116 a_n1003_n1264# a_n803_n1200# 0.26189f
C117 a_n5131_n1264# a_n4931_n1200# 0.26189f
C118 a_2809_n1200# a_3067_n1200# 0.655843f
C119 a_1777_n1200# a_1577_n1264# 0.26189f
C120 a_4873_n1200# a_5131_n1200# 0.655843f
C121 a_n4415_n1200# a_n4673_n1200# 0.655843f
C122 a_4615_n1200# a_4673_n1264# 0.26189f
C123 a_4931_n1264# w_n5389_n1497# 0.34286f
C124 a_n3125_n1200# a_n3383_n1200# 0.655843f
C125 a_3125_n1264# a_3325_n1200# 0.26189f
C126 a_3125_n1264# w_n5389_n1497# 0.307639f
C127 a_1003_n1200# a_803_n1264# 0.26189f
C128 a_n4931_n1200# a_n4673_n1200# 0.655843f
C129 w_n5389_n1497# a_n1261_n1264# 0.307639f
C130 a_4673_n1264# a_4873_n1200# 0.26189f
C131 a_4157_n1264# a_4099_n1200# 0.26189f
C132 a_2035_n1200# a_2293_n1200# 0.655843f
C133 a_n5189_n1200# w_n5389_n1497# 0.69819f
C134 a_1319_n1264# w_n5389_n1497# 0.307639f
C135 w_n5389_n1497# a_n3067_n1264# 0.307639f
C136 a_n1577_n1200# a_n1777_n1264# 0.26189f
C137 a_n545_n1200# a_n745_n1264# 0.26189f
C138 a_4615_n1200# a_4357_n1200# 0.655843f
C139 a_2351_n1264# a_2293_n1200# 0.26189f
C140 w_n5389_n1497# a_2351_n1264# 0.307639f
C141 a_n4157_n1200# a_n4357_n1264# 0.26189f
C142 a_n2293_n1264# w_n5389_n1497# 0.307639f
C143 a_n2867_n1200# a_n3125_n1200# 0.655843f
C144 a_n3641_n1200# a_n3383_n1200# 0.655843f
C145 a_n3899_n1200# a_n3641_n1200# 0.655843f
C146 a_n4415_n1200# a_n4357_n1264# 0.26189f
C147 a_n4931_n1200# a_n4873_n1264# 0.26189f
C148 a_3583_n1200# a_3383_n1264# 0.26189f
C149 a_4931_n1264# a_4873_n1200# 0.26189f
C150 a_n3125_n1200# a_n3067_n1264# 0.26189f
C151 a_n2867_n1200# a_n3067_n1264# 0.26189f
C152 w_n5389_n1497# a_3641_n1264# 0.307639f
C153 a_n2809_n1264# a_n2609_n1200# 0.26189f
C154 a_3841_n1200# a_3641_n1264# 0.26189f
C155 a_545_n1264# a_745_n1200# 0.26189f
C156 w_n5389_n1497# a_n2035_n1264# 0.307639f
C157 a_n1835_n1200# a_n1577_n1200# 0.655843f
C158 a_n29_n1200# a_229_n1200# 0.655843f
C159 a_1261_n1200# a_1061_n1264# 0.26189f
C160 a_229_n1200# a_287_n1264# 0.26189f
C161 a_4615_n1200# a_4873_n1200# 0.655843f
C162 a_5131_n1200# 0 0.58762f
C163 a_4873_n1200# 0 0.335348f
C164 a_4615_n1200# 0 0.335348f
C165 a_4357_n1200# 0 0.335348f
C166 a_4099_n1200# 0 0.335348f
C167 a_3841_n1200# 0 0.335348f
C168 a_3583_n1200# 0 0.335348f
C169 a_3325_n1200# 0 0.335348f
C170 a_3067_n1200# 0 0.335348f
C171 a_2809_n1200# 0 0.335348f
C172 a_2551_n1200# 0 0.335348f
C173 a_2293_n1200# 0 0.335348f
C174 a_2035_n1200# 0 0.335348f
C175 a_1777_n1200# 0 0.335348f
C176 a_1519_n1200# 0 0.335348f
C177 a_1261_n1200# 0 0.335348f
C178 a_1003_n1200# 0 0.335348f
C179 a_745_n1200# 0 0.335348f
C180 a_487_n1200# 0 0.335348f
C181 a_229_n1200# 0 0.335348f
C182 a_n29_n1200# 0 0.335348f
C183 a_n287_n1200# 0 0.335348f